*SOIL INORGANIC N BALANCE

*DSSAT Cropping System Model Ver. 4.8.2.000 -release  MAY 26, 2025 18:07:50

*RUN   1        : farm_23                   MZCER048 UNLI2309    1
 MODEL          : MZCER048 - Maize
 EXPERIMENT     : UNLI2309 MZ PIO1366
 DATA PATH      :
 TREATMENT  1   : farm_23                   MZCER048
  
!               |------------------- STATE VARIABLES -------------------|---- ADDED ---|----------------------------- REMOVED TODAY --------------------------|    DAILY     CUMUL
@YEAR DOY  DAS     NO3     NH4   TUREA   TNGAS  FLOODN  ALGFIX  UNFERT   AFERT  AMINER  RIMMOB    RLCH    RLTD    RNUP    RNRO    RAML   N2OED    N2ED    NOED      DBAL      CBAL
 2020 109    0  14.309   2.385   0.000   0.000   0.000   0.000   0.000     0.0  0.0000  0.0000  0.0000  0.0000  0.0000  0.0000  0.0000  0.0000  0.0000  0.0000    0.0000    0.0000
 2020 110    1  14.549   2.201   0.000   0.003   0.000   0.000   0.000     0.0  0.0595  0.0000  0.0000  0.0000  0.0000  0.0000  0.0000  0.0000  0.0000  0.0000    0.0000    0.0000
 2020 111    2  14.771   2.035   0.000   0.004   0.000   0.000   0.000     0.0  0.0574  0.0000  0.0000  0.0000  0.0000  0.0000  0.0000  0.0000  0.0000  0.0000   -0.0000   -0.0000
 2020 112    3  14.979   1.892   0.000   0.006   0.000   0.000   0.000     0.0  0.0662  0.0000  0.0000  0.0000  0.0000  0.0000  0.0000  0.0000  0.0000  0.0000   -0.0000   -0.0000
 2020 113    4  15.177   1.769   0.000   0.007   0.000   0.000   0.000     0.0  0.0768  0.0000  0.0000  0.0000  0.0000  0.0000  0.0000  0.0000  0.0000  0.0000    0.0000   -0.0000
 2020 114    5  15.375   1.677   0.000   0.008   0.000   0.000   0.000     0.0  0.1070  0.0000  0.0000  0.0000  0.0000  0.0000  0.0000  0.0000  0.0000  0.0000    0.0000    0.0000
 2020 115    6  15.573   1.609   0.000   0.009   0.000   0.000   0.000     0.0  0.1303  0.0000  0.0000  0.0000  0.0000  0.0000  0.0000  0.0000  0.0000  0.0000   -0.0000    0.0000
 2020 116    7  15.767   1.558   0.000   0.010   0.000   0.000   0.000     0.0  0.1437  0.0000  0.0000  0.0000  0.0000  0.0000  0.0000  0.0000  0.0000  0.0000   -0.0000   -0.0000
 2020 117    8  15.956   1.511   0.000   0.010   0.000   0.000   0.000     0.0  0.1431  0.0000  0.0000  0.0000  0.0000  0.0000  0.0000  0.0000  0.0000  0.0000    0.0000   -0.0000
 2020 118    9  16.147   1.480   0.000   0.011   0.000   0.000   0.000     0.0  0.1604  0.0000  0.0000  0.0000  0.0000  0.0000  0.0000  0.0000  0.0000  0.0001   -0.0000   -0.0000
 2020 119   10  16.341   1.463   0.000   0.011   0.000   0.000   0.000     0.0  0.1780  0.0000  0.0000  0.0000  0.0000  0.0000  0.0000  0.0000  0.0000  0.0001    0.0000   -0.0000
 2020 120   11  16.541   1.456   0.000   0.012   0.000   0.000   0.000     0.0  0.1926  0.0000  0.0000  0.0000  0.0000  0.0000  0.0000  0.0000  0.0000  0.0001    0.0000   -0.0000
 2020 121   12  16.747   1.458   0.000   0.012   0.000   0.000   0.000     0.0  0.2096  0.0000  0.0000  0.0000  0.0000  0.0000  0.0000  0.0000  0.0000  0.0001   -0.0000   -0.0000
 2020 122   13  32.017  16.404   0.000   0.013   0.000   0.000   0.000    30.0  0.2358  0.0000  0.0000  0.0000  0.0000  0.0000  0.0201  0.0000  0.0000  0.0001   -0.0000   -0.0000
 2020 123   14  33.790  14.884   0.000   0.015   0.000   0.000   0.000     0.0  0.2762  0.0000  0.0000  0.0000  0.0000  0.0000  0.0203  0.0001  0.0000  0.0000   -0.0000   -0.0000
 2020 124   15  35.770  13.143   0.000   0.018   0.000   0.000   0.000     0.0  0.2600  0.0000  0.0000  0.0000  0.0000  0.0000  0.0176  0.0003  0.0000  0.0001    0.0000   -0.0000
 2020 125   16  37.065  12.089   0.000   0.020   0.000   0.000   0.000     0.0  0.2537  0.0000  0.0000  0.0000  0.0000  0.0000  0.0105  0.0001  0.0000  0.0001   -0.0000   -0.0000
 2020 126   17  38.176  11.201   0.000   0.022   0.000   0.000   0.000     0.0  0.2354  0.0000  0.0000  0.0000  0.0000  0.0000  0.0104  0.0002  0.0000  0.0001    0.0000   -0.0000
 2020 127   18  39.206  10.012   0.000   0.049   0.000   0.000   0.000     0.0  0.2206  0.0000  0.3405  0.0000  0.0000  0.0000  0.0103  0.0007  0.0005  0.0004   -0.0000   -0.0000
 2020 128   19  40.178   8.989   0.000   0.059   0.000   0.000   0.000     0.0  0.1545  0.0000  0.1819  0.0000  0.0000  0.0000  0.0102  0.0011  0.0010  0.0007   -0.0000   -0.0000
 2020 129   20  41.249   8.049   0.000   0.063   0.000   0.000   0.000     0.0  0.1492  0.0000  0.0000  0.0000  0.0000  0.0000  0.0118  0.0013  0.0013  0.0010    0.0000   -0.0000
 2020 130   21  41.020   7.570   0.000   0.117   0.000   0.000   0.000     0.0  0.1215  0.0000  0.7554  0.0000  0.0000  0.0000  0.0174  0.0004  0.0006  0.0003   -0.0000   -0.0000
 2020 131   22  41.459   6.936   0.000   0.136   0.000   0.000   0.000     0.0  0.1136  0.0000  0.2703  0.0000  0.0000  0.0000  0.0160  0.0012  0.0022  0.0008    0.0000   -0.0000
 2020 132   23  42.095   6.344   0.000   0.139   0.000   0.000   0.000     0.0  0.0758  0.0000  0.0200  0.0000  0.0000  0.0000  0.0017  0.0017  0.0033  0.0012   -0.0000   -0.0000
 2020 133   24  41.605   6.027   0.000   0.183   0.000   0.000   0.000     0.0  0.0438  0.0000  0.8043  0.0000  0.0000  0.0000  0.0010  0.0004  0.0009  0.0003    0.0000   -0.0000
 2020 134   25  41.713   5.626   0.000   0.194   0.000   0.000   0.000     0.0  0.0116  0.0000  0.2881  0.0000  0.0000  0.0000  0.0012  0.0012  0.0030  0.0008   -0.0000   -0.0000
 2020 135   26  42.038   5.204   0.000   0.194   0.000   0.000   0.000     0.0  0.0151  0.0000  0.1024  0.0000  0.0000  0.0000  0.0015  0.0018  0.0047  0.0012   -0.0000   -0.0000
 2020 136   27  42.483   4.754   0.000   0.189   0.000   0.000   0.000     0.0  0.0392  0.0000  0.0396  0.0000  0.0000  0.0000  0.0019  0.0020  0.0056  0.0014    0.0000   -0.0000
 2020 137   28  42.669   4.536   0.000   0.226   0.000   0.000   0.000     0.0  0.0872  0.0000  0.0775  0.0000  0.0000  0.0000  0.0016  0.0004  0.0012  0.0003   -0.0000   -0.0000
 2020 138   29  41.606   4.349   0.000   0.263   0.000   0.000   0.000     0.0  0.1551  0.0000  1.3660  0.0000  0.0000  0.0000  0.0008  0.0004  0.0012  0.0003   -0.0000   -0.0000
 2020 139   30  42.027   4.040   0.000   0.276   0.000   0.000   0.000     0.0  0.1911  0.0000  0.0598  0.0000  0.0000  0.0000  0.0008  0.0012  0.0036  0.0008    0.0000   -0.0000
 2020 140   31  41.102   3.886   0.000   0.315   0.000   0.000   0.000     0.0  0.2004  0.0000  1.2366  0.0000  0.0000  0.0000  0.0010  0.0004  0.0013  0.0003   -0.0000   -0.0000
 2020 141   32  41.108   3.611   0.000   0.325   0.000   0.000   0.000     0.0  0.2080  0.0000  0.4578  0.0000  0.0000  0.0000  0.0019  0.0014  0.0045  0.0009    0.0000   -0.0000
 2020 142   33  41.634   3.274   0.000   0.322   0.000   0.000   0.000     0.0  0.2305  0.0000  0.0309  0.0000  0.0000  0.0000  0.0030  0.0021  0.0074  0.0015   -0.0000   -0.0000
 2020 143   34  42.100   2.993   0.000   0.318   0.000   0.000   0.000     0.0  0.2320  0.0000  0.0394  0.0000  0.0000  0.0000  0.0014  0.0021  0.0077  0.0015    0.0000   -0.0000
 2020 144   35  42.341   2.928   0.000   0.345   0.000   0.000   0.000     0.0  0.2642  0.0000  0.0573  0.0000  0.0000  0.0000  0.0008  0.0004  0.0015  0.0003   -0.0000   -0.0000
 2020 145   36  41.851   2.799   0.000   0.369   0.000   0.000   0.000     0.0  0.2926  0.0000  0.8814  0.0000  0.0000  0.0000  0.0008  0.0011  0.0041  0.0007    0.0000   -0.0000
 2020 146   37  42.247   2.637   0.000   0.371   0.000   0.000   0.000     0.0  0.2954  0.0000  0.0486  0.0000  0.0000  0.0000  0.0008  0.0016  0.0066  0.0011   -0.0000   -0.0000
 2020 147   38  41.057   2.608   0.000   0.407   0.000   0.000   0.000     0.0  0.2614  0.0000  1.4415  0.0000  0.0000  0.0000  0.0008  0.0004  0.0018  0.0003   -0.0000   -0.0000
 2020 148   39  40.841   2.502   0.000   0.415   0.000   0.000   0.000     0.0  0.2560  0.0000  0.5614  0.0000  0.0000  0.0000  0.0008  0.0012  0.0053  0.0008    0.0000   -0.0000
 2020 149   40  41.024   2.382   0.000   0.411   0.000   0.000   0.000     0.0  0.2560  0.0000  0.1855  0.0000  0.0000  0.0000  0.0009  0.0017  0.0080  0.0012    0.0000   -0.0000
 2020 150   41  41.350   2.256   0.000   0.401   0.000   0.000   0.000     0.0  0.2596  0.0000  0.0546  0.0000  0.0000  0.0000  0.0023  0.0021  0.0101  0.0014   -0.0000   -0.0000
 2020 151   42  41.721   2.150   0.000   0.390   0.000   0.000   0.000     0.0  0.2709  0.0000  0.0000  0.0000  0.0000  0.0000  0.0028  0.0021  0.0104  0.0014   -0.0000   -0.0000
 2020 152   43  42.050   2.059   0.000   0.379   0.000   0.000   0.000     0.0  0.3163  0.0000  0.0000  0.0000  0.0719  0.0000  0.0030  0.0020  0.0106  0.0014    0.0000    0.0000
 2020 153   44  42.458   1.989   0.000   0.368   0.000   0.000   0.000     0.0  0.3614  0.0000  0.0000  0.0000  0.0190  0.0000  0.0008  0.0020  0.0108  0.0014   -0.0000   -0.0000
 2020 154   45  42.646   1.929   0.000   0.357   0.000   0.000   0.000     0.0  0.4187  0.0000  0.0000  0.0000  0.2856  0.0000  0.0026  0.0020  0.0109  0.0014    0.0000   -0.0000
 2020 155   46  42.515   1.856   0.000   0.346   0.000   0.000   0.000     0.0  0.4622  0.0000  0.0000  0.0000  0.6372  0.0000  0.0252  0.0019  0.0109  0.0014    0.0000    0.0000
 2020 156   47  42.240   1.804   0.000   0.335   0.000   0.000   0.000     0.0  0.4846  0.0000  0.0000  0.0000  0.7822  0.0000  0.0259  0.0019  0.0109  0.0014   -0.0000   -0.0000
 2020 157   48  41.976   1.767   0.000   0.324   0.000   0.000   0.000     0.0  0.5062  0.0000  0.0000  0.0000  0.7774  0.0000  0.0261  0.0019  0.0108  0.0014    0.0000   -0.0000
 2020 158   49  41.564   1.741   0.000   0.314   0.000   0.000   0.000     0.0  0.5178  0.0000  0.0000  0.0000  0.9251  0.0000  0.0278  0.0018  0.0107  0.0014   -0.0000   -0.0000
 2020 159   50  41.136   1.727   0.000   0.303   0.000   0.000   0.000     0.0  0.5260  0.0000  0.0000  0.0000  0.9391  0.0000  0.0249  0.0018  0.0106  0.0014    0.0000   -0.0000
 2020 160   51  39.941   1.731   0.000   0.293   0.000   0.000   0.000     0.0  0.5513  0.0000  0.0000  0.0000  1.7301  0.0000  0.0096  0.0017  0.0104  0.0013    0.0000   -0.0000
 2020 161   52  36.653   1.720   0.000   0.284   0.000   0.000   0.000     0.0  0.5689  0.0000  0.0000  0.0000  3.8446  0.0000  0.0194  0.0017  0.0102  0.0013   -0.0000   -0.0000
 2020 162   53  37.149   1.732   0.000   0.274   0.000   0.000   0.000     0.0  0.5206  0.0000  0.0000  0.0000  0.0000  0.0000  0.0096  0.0016  0.0099  0.0013    0.0000    0.0000
 2020 163   54  35.392   1.744   0.000   0.264   0.000   0.000   0.000     0.0  0.4818  0.0000  0.0000  0.0000  2.2147  0.0000  0.0096  0.0016  0.0097  0.0013   -0.0000    0.0000
 2020 164   55  33.917   1.752   0.000   0.254   0.000   0.000   0.000     0.0  0.4270  0.0000  0.0000  0.0000  1.8825  0.0000  0.0096  0.0015  0.0094  0.0013   -0.0000   -0.0000
 2020 165   56  31.818   1.743   0.000   0.245   0.000   0.000   0.000     0.0  0.3866  0.0000  0.0000  0.0000  2.4719  0.0000  0.0199  0.0015  0.0091  0.0013    0.0000   -0.0000
 2020 166   57  29.950   1.752   0.000   0.235   0.000   0.000   0.000     0.0  0.3750  0.0000  0.0000  0.0000  2.2289  0.0000  0.0025  0.0014  0.0088  0.0012   -0.0000   -0.0000
 2020 167   58  27.196   1.766   0.000   0.227   0.000   0.000   0.000     0.0  0.4550  0.0000  0.0000  0.0000  3.1902  0.0000  0.0023  0.0014  0.0085  0.0012    0.0000    0.0000
 2020 168   59  23.749   1.770   0.000   0.218   0.000   0.000   0.000     0.0  0.5193  0.0000  0.0000  0.0000  3.9582  0.0000  0.0024  0.0013  0.0082  0.0012   -0.0000   -0.0000
 2020 169   60  21.885   1.761   0.000   0.210   0.000   0.000   0.000     0.0  0.5693  0.0000  0.0000  0.0000  2.4371  0.0000  0.0024  0.0013  0.0079  0.0012   -0.0000   -0.0000
 2020 170   61  21.427   1.743   0.000   0.203   0.000   0.000   0.000     0.0  0.6050  0.0000  0.0000  0.0000  1.0762  0.0000  0.0023  0.0013  0.0076  0.0012    0.0000   -0.0000
 2020 171   62  21.525   1.735   0.000   0.196   0.000   0.000   0.000     0.0  0.5916  0.0000  0.0000  0.0000  0.4969  0.0000  0.0017  0.0012  0.0073  0.0012   -0.0000   -0.0000
 2020 172   63  21.571   1.744   0.000   0.189   0.000   0.000   0.000     0.0  0.5342  0.0000  0.0000  0.0000  0.4743  0.0000  0.0015  0.0012  0.0070  0.0012    0.0000   -0.0000
 2020 173   64  21.638   1.756   0.000   0.182   0.000   0.000   0.000     0.0  0.4923  0.0000  0.0000  0.0000  0.4113  0.0000  0.0008  0.0011  0.0066  0.0012    0.0000    0.0000
 2020 174   65  21.723   1.763   0.000   0.176   0.000   0.000   0.000     0.0  0.4701  0.0000  0.0000  0.0000  0.3750  0.0000  0.0008  0.0011  0.0063  0.0012    0.0000    0.0000
 2020 175   66  21.780   1.765   0.000   0.169   0.000   0.000   0.000     0.0  0.4232  0.0000  0.0000  0.0000  0.3605  0.0000  0.0016  0.0011  0.0060  0.0012    0.0000    0.0000
 2020 176   67  21.785   1.763   0.000   0.163   0.000   0.000   0.000     0.0  0.4125  0.0000  0.0000  0.0000  0.4071  0.0000  0.0008  0.0010  0.0058  0.0011   -0.0000   -0.0000
 2020 177   68  21.747   1.755   0.000   0.158   0.000   0.000   0.000     0.0  0.4357  0.0000  0.0000  0.0000  0.4786  0.0000  0.0008  0.0010  0.0055  0.0011    0.0000    0.0000
 2020 178   69  21.672   1.739   0.000   0.152   0.000   0.000   0.000     0.0  0.4624  0.0000  0.0000  0.0000  0.5502  0.0000  0.0016  0.0009  0.0052  0.0011   -0.0000   -0.0000
 2020 179   70  21.559   1.720   0.000   0.147   0.000   0.000   0.000     0.0  0.4604  0.0000  0.0000  0.0000  0.5895  0.0000  0.0008  0.0009  0.0050  0.0011    0.0000   -0.0000
 2020 180   71  21.466   1.693   0.000   0.143   0.000   0.000   0.000     0.0  0.4796  0.0000  0.0000  0.0000  0.5963  0.0000  0.0008  0.0009  0.0047  0.0011    0.0000    0.0000
 2020 181   72  21.407   1.654   0.000   0.139   0.000   0.000   0.000     0.0  0.5108  0.0000  0.0000  0.0000  0.6061  0.0000  0.0015  0.0009  0.0045  0.0011    0.0000    0.0000
 2020 182   73  21.346   1.607   0.000   0.135   0.000   0.000   0.000     0.0  0.5278  0.0000  0.0000  0.0000  0.6305  0.0000  0.0018  0.0008  0.0043  0.0011    0.0000    0.0000
 2020 183   74  21.214   1.582   0.000   0.131   0.000   0.000   0.000     0.0  0.4842  0.0000  0.0000  0.0000  0.6377  0.0000  0.0017  0.0008  0.0041  0.0011   -0.0000    0.0000
 2020 184   75  21.114   1.562   0.000   0.127   0.000   0.000   0.000     0.0  0.4562  0.0000  0.0000  0.0000  0.5728  0.0000  0.0017  0.0008  0.0039  0.0011   -0.0000    0.0000
 2020 185   76  21.043   1.541   0.000   0.124   0.000   0.000   0.000     0.0  0.4470  0.0000  0.0000  0.0000  0.5349  0.0000  0.0016  0.0008  0.0037  0.0011    0.0000    0.0000
 2020 186   77  20.977   1.517   0.000   0.120   0.000   0.000   0.000     0.0  0.4309  0.0000  0.0000  0.0000  0.5175  0.0000  0.0019  0.0008  0.0035  0.0011    0.0000    0.0000
 2020 187   78  20.901   1.494   0.000   0.117   0.000   0.000   0.000     0.0  0.4016  0.0000  0.0000  0.0000  0.4960  0.0000  0.0019  0.0007  0.0033  0.0011    0.0000    0.0000
 2020 188   79  20.887   1.464   0.000   0.114   0.000   0.000   0.000     0.0  0.4205  0.0000  0.0000  0.0000  0.4613  0.0000  0.0018  0.0007  0.0032  0.0011    0.0000    0.0000
 2020 189   80  20.872   1.424   0.000   0.111   0.000   0.000   0.000     0.0  0.4387  0.0000  0.0000  0.0000  0.4899  0.0000  0.0019  0.0007  0.0030  0.0011    0.0000    0.0000
 2020 190   81  20.812   1.381   0.000   0.108   0.000   0.000   0.000     0.0  0.4414  0.0000  0.0000  0.0000  0.5395  0.0000  0.0020  0.0007  0.0028  0.0011    0.0000    0.0000
 2020 191   82  20.714   1.340   0.000   0.106   0.000   0.000   0.000     0.0  0.4416  0.0000  0.0000  0.0000  0.5772  0.0000  0.0019  0.0007  0.0027  0.0011   -0.0000    0.0000
 2020 192   83  20.533   1.353   0.000   0.107   0.000   0.000   0.000     0.0  0.4575  0.0000  0.0000  0.0000  0.6225  0.0000  0.0008  0.0002  0.0006  0.0003    0.0000    0.0000
 2020 193   84  20.381   1.358   0.000   0.105   0.000   0.000   0.000     0.0  0.4629  0.0000  0.0000  0.0000  0.6074  0.0000  0.0008  0.0006  0.0021  0.0010    0.0000    0.0000
 2020 194   85  20.219   1.357   0.000   0.103   0.000   0.000   0.000     0.0  0.4438  0.0000  0.0000  0.0000  0.6035  0.0000  0.0012  0.0006  0.0023  0.0011    0.0000    0.0000
 2020 195   86  20.017   1.355   0.000   0.101   0.000   0.000   0.000     0.0  0.4192  0.0000  0.0000  0.0000  0.6192  0.0000  0.0017  0.0006  0.0022  0.0011   -0.0000    0.0000
 2020 196   87  19.734   1.420   0.000   0.101   0.000   0.000   0.000     0.0  0.4399  0.0000  0.0000  0.0000  0.6551  0.0000  0.0019  0.0002  0.0006  0.0003    0.0000    0.0000
 2020 197   88  19.615   1.459   0.000   0.101   0.000   0.000   0.000     0.0  0.4493  0.0000  0.0000  0.0000  0.5265  0.0000  0.0008  0.0004  0.0013  0.0007   -0.0000    0.0000
 2020 198   89  19.501   1.476   0.000   0.099   0.000   0.000   0.000     0.0  0.4402  0.0000  0.0000  0.0000  0.5350  0.0000  0.0008  0.0006  0.0018  0.0010    0.0000    0.0000
 2020 199   90  19.414   1.474   0.000   0.097   0.000   0.000   0.000     0.0  0.4510  0.0000  0.0000  0.0000  0.5374  0.0000  0.0008  0.0006  0.0019  0.0011    0.0000    0.0000
 2020 200   91  19.319   1.463   0.000   0.096   0.000   0.000   0.000     0.0  0.4735  0.0000  0.0000  0.0000  0.5750  0.0000  0.0020  0.0006  0.0018  0.0011    0.0000    0.0000
 2020 201   92  19.197   1.458   0.000   0.094   0.000   0.000   0.000     0.0  0.4606  0.0000  0.0000  0.0000  0.5851  0.0000  0.0017  0.0006  0.0017  0.0011   -0.0000    0.0000
 2020 202   93  19.119   1.448   0.000   0.093   0.000   0.000   0.000     0.0  0.4753  0.0000  0.0000  0.0000  0.5585  0.0000  0.0020  0.0006  0.0016  0.0011   -0.0000    0.0000
 2020 203   94  19.041   1.440   0.000   0.092   0.000   0.000   0.000     0.0  0.4792  0.0000  0.0000  0.0000  0.5616  0.0000  0.0019  0.0006  0.0015  0.0011    0.0000    0.0000
 2020 204   95  18.943   1.440   0.000   0.090   0.000   0.000   0.000     0.0  0.4581  0.0000  0.0000  0.0000  0.5529  0.0000  0.0012  0.0006  0.0014  0.0011    0.0000    0.0000
 2020 205   96  18.861   1.442   0.000   0.089   0.000   0.000   0.000     0.0  0.4429  0.0000  0.0000  0.0000  0.5199  0.0000  0.0021  0.0006  0.0014  0.0011   -0.0000    0.0000
 2020 206   97  18.815   1.440   0.000   0.088   0.000   0.000   0.000     0.0  0.4525  0.0000  0.0000  0.0000  0.4961  0.0000  0.0019  0.0006  0.0013  0.0011    0.0000    0.0000
 2020 207   98  18.787   1.437   0.000   0.087   0.000   0.000   0.000     0.0  0.4699  0.0000  0.0000  0.0000  0.4976  0.0000  0.0022  0.0004  0.0010  0.0009    0.0000    0.0000
 2020 208   99  18.703   1.468   0.000   0.088   0.000   0.000   0.000     0.0  0.4858  0.0000  0.0000  0.0000  0.5361  0.0000  0.0008  0.0002  0.0003  0.0003    0.0000    0.0000
 2020 209  100  18.731   1.474   0.000   0.088   0.000   0.000   0.000     0.0  0.4987  0.0000  0.0000  0.0000  0.4622  0.0000  0.0008  0.0004  0.0008  0.0008   -0.0000    0.0000
 2020 210  101  18.738   1.472   0.000   0.087   0.000   0.000   0.000     0.0  0.4941  0.0000  0.0000  0.0000  0.4848  0.0000  0.0017  0.0006  0.0012  0.0011    0.0000    0.0000
 2020 211  102  18.725   1.459   0.000   0.086   0.000   0.000   0.000     0.0  0.4841  0.0000  0.0000  0.0000  0.5065  0.0000  0.0022  0.0006  0.0012  0.0012    0.0000    0.0000
 2020 212  103  18.538   1.564   0.000   0.087   0.000   0.000   0.000     0.0  0.4863  0.0000  0.0000  0.0000  0.5653  0.0000  0.0023  0.0001  0.0003  0.0003    0.0000    0.0001
 2020 213  104  18.530   1.627   0.000   0.087   0.000   0.000   0.000     0.0  0.4555  0.0000  0.0000  0.0000  0.3974  0.0000  0.0008  0.0002  0.0004  0.0004   -0.0000    0.0000
 2020 214  105  18.560   1.661   0.000   0.086   0.000   0.000   0.000     0.0  0.4665  0.0000  0.0000  0.0000  0.4006  0.0000  0.0008  0.0004  0.0008  0.0009   -0.0000    0.0000
 2020 215  106  18.570   1.679   0.000   0.085   0.000   0.000   0.000     0.0  0.4657  0.0000  0.0000  0.0000  0.4349  0.0000  0.0011  0.0005  0.0009  0.0011   -0.0000    0.0000
 2020 216  107  18.513   1.691   0.000   0.084   0.000   0.000   0.000     0.0  0.4365  0.0000  0.0000  0.0000  0.4789  0.0000  0.0008  0.0006  0.0010  0.0012   -0.0000    0.0000
 2020 217  108  18.452   1.691   0.000   0.083   0.000   0.000   0.000     0.0  0.4063  0.0000  0.0000  0.0000  0.4652  0.0000  0.0008  0.0006  0.0009  0.0012    0.0000    0.0000
 2020 218  109  18.409   1.686   0.000   0.082   0.000   0.000   0.000     0.0  0.4067  0.0000  0.0000  0.0000  0.4513  0.0000  0.0016  0.0006  0.0009  0.0011   -0.0000    0.0000
 2020 219  110  18.378   1.683   0.000   0.081   0.000   0.000   0.000     0.0  0.4190  0.0000  0.0000  0.0000  0.4501  0.0000  0.0023  0.0006  0.0009  0.0011    0.0000    0.0000
 2020 220  111  18.346   1.681   0.000   0.080   0.000   0.000   0.000     0.0  0.4258  0.0000  0.0000  0.0000  0.4552  0.0000  0.0023  0.0006  0.0008  0.0011   -0.0000    0.0000
 2020 221  112  18.374   1.674   0.000   0.079   0.000   0.000   0.000     0.0  0.4728  0.0000  0.0000  0.0000  0.4477  0.0000  0.0024  0.0005  0.0008  0.0011    0.0000    0.0000
 2020 222  113  18.397   1.663   0.000   0.079   0.000   0.000   0.000     0.0  0.5071  0.0000  0.0000  0.0000  0.4911  0.0000  0.0022  0.0005  0.0008  0.0011    0.0000    0.0001
 2020 223  114  18.421   1.650   0.000   0.079   0.000   0.000   0.000     0.0  0.5344  0.0000  0.0000  0.0000  0.5207  0.0000  0.0008  0.0005  0.0007  0.0011    0.0000    0.0001
 2020 224  115  18.416   1.642   0.000   0.078   0.000   0.000   0.000     0.0  0.5361  0.0000  0.0000  0.0000  0.5466  0.0000  0.0011  0.0005  0.0007  0.0011    0.0000    0.0001
 2020 225  116  18.413   1.635   0.000   0.078   0.000   0.000   0.000     0.0  0.5387  0.0000  0.0000  0.0000  0.5439  0.0000  0.0021  0.0005  0.0007  0.0011   -0.0000    0.0001
 2020 226  117  18.397   1.635   0.000   0.077   0.000   0.000   0.000     0.0  0.5289  0.0000  0.0000  0.0000  0.5409  0.0000  0.0023  0.0005  0.0007  0.0011    0.0000    0.0001
 2020 227  118  18.412   1.631   0.000   0.077   0.000   0.000   0.000     0.0  0.5408  0.0000  0.0000  0.0000  0.5254  0.0000  0.0026  0.0005  0.0006  0.0011    0.0000    0.0001
 2020 228  119  18.396   1.633   0.000   0.077   0.000   0.000   0.000     0.0  0.5278  0.0000  0.0000  0.0000  0.5371  0.0000  0.0024  0.0005  0.0006  0.0011   -0.0000    0.0001
 2020 229  120  18.384   1.636   0.000   0.076   0.000   0.000   0.000     0.0  0.5149  0.0000  0.0000  0.0000  0.5196  0.0000  0.0021  0.0005  0.0006  0.0011    0.0000    0.0001
 2020 230  121  18.394   1.638   0.000   0.076   0.000   0.000   0.000     0.0  0.5216  0.0000  0.0000  0.0000  0.5063  0.0000  0.0022  0.0005  0.0006  0.0011   -0.0000    0.0001
 2020 231  122  18.376   1.643   0.000   0.076   0.000   0.000   0.000     0.0  0.5039  0.0000  0.0000  0.0000  0.5124  0.0000  0.0023  0.0005  0.0006  0.0011    0.0000    0.0001
 2020 232  123  18.375   1.647   0.000   0.075   0.000   0.000   0.000     0.0  0.4997  0.0000  0.0000  0.0000  0.4929  0.0000  0.0024  0.0005  0.0005  0.0011    0.0000    0.0001
 2020 233  124  18.398   1.647   0.000   0.075   0.000   0.000   0.000     0.0  0.5155  0.0000  0.0000  0.0000  0.4891  0.0000  0.0021  0.0005  0.0005  0.0011    0.0000    0.0001
 2020 234  125  18.443   1.637   0.000   0.075   0.000   0.000   0.000     0.0  0.5455  0.0000  0.0000  0.0000  0.5049  0.0000  0.0022  0.0005  0.0005  0.0011   -0.0000    0.0001
 2020 235  126  18.461   1.630   0.000   0.075   0.000   0.000   0.000     0.0  0.5499  0.0000  0.0000  0.0000  0.5360  0.0000  0.0018  0.0005  0.0005  0.0011    0.0000    0.0001
 2020 236  127  18.504   1.615   0.000   0.074   0.000   0.000   0.000     0.0  0.5694  0.0000  0.0000  0.0000  0.5364  0.0000  0.0023  0.0005  0.0005  0.0011    0.0000    0.0001
 2020 237  128  18.524   1.603   0.000   0.074   0.000   0.000   0.000     0.0  0.5694  0.0000  0.0000  0.0000  0.5576  0.0000  0.0023  0.0005  0.0005  0.0011    0.0000    0.0001
 2020 238  129  18.569   1.587   0.000   0.074   0.000   0.000   0.000     0.0  0.5860  0.0000  0.0000  0.0000  0.5531  0.0000  0.0023  0.0005  0.0005  0.0011   -0.0000    0.0001
 2020 239  130  18.608   1.569   0.000   0.074   0.000   0.000   0.000     0.0  0.5954  0.0000  0.0000  0.0000  0.5698  0.0000  0.0024  0.0005  0.0005  0.0011   -0.0000    0.0001
 2020 240  131  18.650   1.550   0.000   0.074   0.000   0.000   0.000     0.0  0.6043  0.0000  0.0000  0.0000  0.5771  0.0000  0.0024  0.0005  0.0004  0.0011   -0.0000    0.0001
 2020 241  132  18.686   1.533   0.000   0.074   0.000   0.000   0.000     0.0  0.6082  0.0000  0.0000  0.0000  0.5841  0.0000  0.0023  0.0005  0.0004  0.0011   -0.0000    0.0001
 2020 242  133  18.695   1.527   0.000   0.074   0.000   0.000   0.000     0.0  0.5910  0.0000  0.0000  0.0000  0.5837  0.0000  0.0022  0.0005  0.0004  0.0011    0.0000    0.0001
 2020 243  134  18.662   1.539   0.000   0.074   0.000   0.000   0.000     0.0  0.5415  0.0000  0.0000  0.0000  0.5588  0.0000  0.0022  0.0005  0.0004  0.0011    0.0000    0.0001
 2020 244  135  18.685   1.546   0.000   0.074   0.000   0.000   0.000     0.0  0.5307  0.0000  0.0000  0.0000  0.4952  0.0000  0.0023  0.0005  0.0004  0.0011   -0.0000    0.0001
 2020 245  136  18.659   1.561   0.000   0.074   0.000   0.000   0.000     0.0  0.4810  0.0000  0.0000  0.0000  0.4891  0.0000  0.0021  0.0005  0.0004  0.0011    0.0000    0.0001
 2020 246  137  18.649   1.573   0.000   0.073   0.000   0.000   0.000     0.0  0.4459  0.0000  0.0000  0.0000  0.4401  0.0000  0.0022  0.0005  0.0004  0.0011    0.0000    0.0001
 2020 247  138  18.651   1.582   0.000   0.073   0.000   0.000   0.000     0.0  0.4256  0.0000  0.0000  0.0000  0.4112  0.0000  0.0021  0.0005  0.0004  0.0011    0.0000    0.0001
 2020 248  139  18.683   1.585   0.000   0.072   0.000   0.000   0.000     0.0  0.4361  0.0000  0.0000  0.0000  0.3967  0.0000  0.0022  0.0005  0.0004  0.0011   -0.0000    0.0001
 2020 249  140  18.690   1.587   0.000   0.071   0.000   0.000   0.000     0.0  0.4218  0.0000  0.0000  0.0000  0.4100  0.0000  0.0022  0.0005  0.0004  0.0011    0.0000    0.0001
 2020 250  141  18.742   1.583   0.000   0.071   0.000   0.000   0.000     0.0  0.4505  0.0000  0.0000  0.0000  0.3987  0.0000  0.0022  0.0005  0.0004  0.0011   -0.0000    0.0001
 2020 251  142  18.791   1.574   0.000   0.071   0.000   0.000   0.000     0.0  0.4719  0.0000  0.0000  0.0000  0.4279  0.0000  0.0021  0.0005  0.0004  0.0011    0.0000    0.0001
 2020 252  143  18.795   1.569   0.000   0.073   0.000   0.000   0.000     0.0  0.4562  0.0000  0.0000  0.0000  0.4502  0.0000  0.0019  0.0005  0.0003  0.0012   -0.0000    0.0001
 2020 253  144  18.744   1.580   0.000   0.075   0.000   0.000   0.000     0.0  0.3934  0.0000  0.0000  0.0000  0.4300  0.0000  0.0009  0.0005  0.0003  0.0011   -0.0000    0.0001
 2020 254  145  18.686   1.584   0.000   0.075   0.000   0.000   0.000     0.0  0.3118  0.0000  0.0000  0.0000  0.3626  0.0000  0.0008  0.0005  0.0003  0.0011    0.0000    0.0001
 2020 255  146  18.643   1.566   0.000   0.074   0.000   0.000   0.000     0.0  0.2404  0.0000  0.0000  0.0000  0.2989  0.0000  0.0008  0.0005  0.0003  0.0011    0.0000    0.0001
 2020 256  147  18.610   1.534   0.000   0.074   0.000   0.000   0.000     0.0  0.1934  0.0000  0.0000  0.0000  0.2569  0.0000  0.0008  0.0005  0.0003  0.0011    0.0000    0.0001
 2020 257  148  18.598   1.506   0.000   0.073   0.000   0.000   0.000     0.0  0.1923  0.0000  0.0000  0.0000  0.2304  0.0000  0.0008  0.0005  0.0003  0.0011   -0.0000    0.0001
 2020 258  149  18.626   1.508   0.000   0.072   0.000   0.000   0.000     0.0  0.2573  0.0000  0.0000  0.0000  0.2259  0.0000  0.0008  0.0005  0.0003  0.0011    0.0000    0.0001
 2020 259  150  18.668   1.528   0.000   0.071   0.000   0.000   0.000     0.0  0.3198  0.0000  0.0000  0.0000  0.2547  0.0000  0.0016  0.0005  0.0003  0.0011    0.0000    0.0001
 2020 260  151  18.727   1.555   0.000   0.070   0.000   0.000   0.000     0.0  0.3798  0.0000  0.0000  0.0000  0.2910  0.0000  0.0019  0.0005  0.0003  0.0011    0.0000    0.0001
 2020 261  152  18.752   1.576   0.000   0.070   0.000   0.000   0.000     0.0  0.3846  0.0000  0.0000  0.0000  0.3352  0.0000  0.0018  0.0005  0.0003  0.0011    0.0000    0.0001
 2020 262  153  18.772   1.592   0.000   0.069   0.000   0.000   0.000     0.0  0.3826  0.0000  0.0000  0.0000  0.3436  0.0000  0.0018  0.0005  0.0003  0.0011    0.0000    0.0001
 2020 263  154  18.793   1.604   0.000   0.068   0.000   0.000   0.000     0.0  0.3821  0.0000  0.0000  0.0000  0.3462  0.0000  0.0019  0.0005  0.0003  0.0011   -0.0000    0.0001
 2020 264  155  18.827   1.614   0.000   0.068   0.000   0.000   0.000     0.0  0.3955  0.0000  0.0000  0.0000  0.3491  0.0000  0.0019  0.0005  0.0003  0.0011    0.0000    0.0001
 2020 265  156  19.216   1.620   0.000   0.067   0.000   0.000   0.000     0.0  0.3995  0.0000  0.0000  0.0000  0.0000  0.0000  0.0019  0.0005  0.0003  0.0011    0.0000    0.0001
 2020 266  157  19.640   1.625   0.000   0.067   0.000   0.000   0.000     0.0  0.4314  0.0000  0.0000  0.0000  0.0000  0.0000  0.0019  0.0005  0.0003  0.0011   -0.0000    0.0001
 2020 267  158  20.097   1.626   0.000   0.067   0.000   0.000   0.000     0.0  0.4612  0.0000  0.0000  0.0000  0.0000  0.0000  0.0008  0.0005  0.0003  0.0011    0.0000    0.0001
 2020 268  159  20.568   1.626   0.000   0.066   0.000   0.000   0.000     0.0  0.4728  0.0000  0.0000  0.0000  0.0000  0.0000  0.0012  0.0005  0.0003  0.0011   -0.0000    0.0001


!SOIL INORGANIC N BALANCE                         Initial               Final
!                                                Year/Doy            Year/Doy
!                                                2020/110            2020/268
!                                               (kg[N]/ha)          (kg[N]/ha)
! Soil N state variables:
!   Soil NO3                                        14.31               20.57
!   Soil NH4                                         2.38                1.63
!   Soil Urea                                        0.00                0.00
!   Soil N gases                                     0.00                0.07
!   Unreleased fert N                                                    0.00

! N additions:
!   Fertilizer N                                    30.00
!   Mineralized N                                   61.43

! N subtractions:
!   N immobilized                                                        0.00
!   N leached                                                            9.30
!   N loss to tile drainage                                              0.00
!   N Uptake From Soil                                                  75.30
!   NH3 loss                                                             0.56
!   N2O loss                                                             0.12
!   N2 loss                                                              0.44
!   NO loss                                                              0.15

!   Total N balance                                108.13              108.13
!   Balance                                                             0.000
