*Soil Carbon Balance Summary

*DSSAT Cropping System Model Ver. 4.8.2.000 -release  MAY 26, 2025 18:07:50
!                             <----------------- Initial State Variables ----------------><------------------ Final State Variables -----------------><----------- Added ----------><---------------- Lost ---------------->
!                             <-------- SOM-C -------><-------- FOM-C -------><-----CH4--><-------- SOM-C -------><-------- FOM-C -------><-----CH4--><---OM---><Senesced><-HarvRes><----------------- GHG ----------------><--Balance->
!                                     Surf        Soil        Surf        Soil     Storage        Surf        Soil        Surf        Soil     Storage 
@Run FILEX               TN CR       SC0Di      SOMCTi       LC0Di       LCTDi     CH4STDi        SC0D       SOMCT        LC0D        LCTD      CH4STD      OMAC     SENCC      HRCH     CO2EC     CH4EC    CH4LCC    CH4COC      CUMBAL
   1 UNLI2309.MZX         1 MZ        0.00   126816.20     2000.00        0.00        0.00        0.00   126229.17     4000.00      153.68        0.00   2000.00    312.57      0.00    745.94      0.00      0.00      0.00      0.0158
