*SOIL ORGANIC N BALANCE

*DSSAT Cropping System Model Ver. 4.8.2.000 -release  MAY 26, 2025 18:07:50

*RUN   1        : farm_23                   MZCER048 UNLI2309    1
 MODEL          : MZCER048 - Maize
 EXPERIMENT     : UNLI2309 MZ PIO1366
 DATA PATH      :
 TREATMENT  1   : farm_23                   MZCER048
  
!                 ----- STATE VARS ------   ---- ADDED TODAY ---- REMOVED     DAILY     CUMUL
@YEAR DOY   DAS      HUMN     FON    RESN   ARESN   ASENN AIMMOBN RMINERP      DBAL      CBAL
 2020 109     0  12681.62   0.000   0.000   0.000   0.000   0.000   0.000     0.000     0.000
 2020 110     1  12681.56   0.000  55.000  55.000   0.000   0.000   0.060     0.001     0.001
 2020 111     2  12681.50   0.000  55.000   0.000   0.000   0.000   0.057    -0.001    -0.000
 2020 112     3  12681.44   0.000  55.000   0.000   0.000   0.000   0.066    -0.000    -0.001
 2020 113     4  12681.36   0.000  55.000   0.000   0.000   0.000   0.077     0.001     0.000
 2020 114     5  12681.25   0.000  55.000   0.000   0.000   0.000   0.107    -0.000    -0.000
 2020 115     6  12681.12   0.000  55.000   0.000   0.000   0.000   0.130     0.001     0.001
 2020 116     7  12680.98   0.000  55.000   0.000   0.000   0.000   0.144    -0.001     0.000
 2020 117     8  12680.84   0.000  55.000   0.000   0.000   0.000   0.143     0.000     0.001
 2020 118     9  12680.68   0.000  55.000   0.000   0.000   0.000   0.160     0.000     0.001
 2020 119    10  12680.50   0.000  55.000   0.000   0.000   0.000   0.178    -0.001     0.000
 2020 120    11  12680.30   0.000  55.000   0.000   0.000   0.000   0.193     0.000     0.000
 2020 121    12  12680.09   0.000  55.000   0.000   0.000   0.000   0.210    -0.000     0.000
 2020 122    13  12679.86   0.000  55.000   0.000   0.000   0.000   0.236     0.000     0.000
 2020 123    14  12679.58   0.000  55.000   0.000   0.000   0.000   0.276     0.001     0.001
 2020 124    15  12679.32   0.000  55.000   0.000   0.000   0.000   0.260     0.000     0.001
 2020 125    16  12679.07   0.000  55.000   0.000   0.000   0.000   0.254    -0.001     0.000
 2020 126    17  12678.83   0.000  55.000   0.000   0.000   0.000   0.235     0.001     0.001
 2020 127    18  12678.61   0.000  55.000   0.000   0.000   0.000   0.221    -0.000     0.001
 2020 128    19  12678.46   0.000  55.000   0.000   0.000   0.000   0.155    -0.001     0.000
 2020 129    20  12678.31   0.000  55.000   0.000   0.000   0.000   0.149     0.001     0.001
 2020 130    21  12678.19   0.000  55.000   0.000   0.000   0.000   0.121    -0.001     0.001
 2020 131    22  12678.08   0.000  55.000   0.000   0.000   0.000   0.114     0.000     0.001
 2020 132    23  12678.00   0.000  55.000   0.000   0.000   0.000   0.076    -0.000     0.001
 2020 133    24  12677.96   0.000  55.000   0.000   0.000   0.000   0.044     0.001     0.001
 2020 134    25  12677.94   0.000  55.000   0.000   0.000   0.000   0.012    -0.000     0.001
 2020 135    26  12677.93   0.000  55.000   0.000   0.000   0.000   0.015    -0.001     0.001
 2020 136    27  12677.89   0.000  55.000   0.000   0.000   0.000   0.039     0.000     0.001
 2020 137    28  12677.80   0.000  55.000   0.000   0.000   0.000   0.087     0.000     0.001
 2020 138    29  12677.65   0.000  55.000   0.000   0.000   0.000   0.155     0.001     0.002
 2020 139    30  12677.46   0.000  55.000   0.000   0.000   0.000   0.191    -0.000     0.002
 2020 140    31  12677.26   0.000  55.000   0.000   0.000   0.000   0.200    -0.001     0.001
 2020 141    32  12677.05   0.000  55.000   0.000   0.000   0.000   0.208     0.000     0.001
 2020 142    33  12676.82   0.000  55.000   0.000   0.000   0.000   0.230    -0.000     0.001
 2020 143    34  12676.59   0.000  55.000   0.000   0.000   0.000   0.232     0.001     0.001
 2020 144    35  12676.32   0.000  55.000   0.000   0.000   0.000   0.264     0.001     0.002
 2020 145    36  12676.03   0.000  55.000   0.000   0.000   0.000   0.293    -0.000     0.002
 2020 146    37  12675.73   0.000  55.000   0.000   0.000   0.000   0.295     0.000     0.002
 2020 147    38  12675.47   0.000  55.000   0.000   0.000   0.000   0.261    -0.000     0.002
 2020 148    39  12675.22   0.000  55.000   0.000   0.000   0.000   0.256     0.000     0.002
 2020 149    40  12674.96   0.000  55.000   0.000   0.000   0.000   0.256     0.000     0.002
 2020 150    41  12674.70   0.000  55.000   0.000   0.000   0.000   0.260    -0.000     0.002
 2020 151    42  12674.43   0.000  55.000   0.000   0.000   0.000   0.271    -0.001     0.001
 2020 152    43  12674.11   0.002  55.000   0.000   0.002   0.000   0.316     0.002     0.003
 2020 153    44  12673.75   0.004  55.000   0.000   0.002   0.000   0.361     0.000     0.003
 2020 154    45  12673.33   0.007  55.000   0.000   0.003   0.000   0.419     0.000     0.004
 2020 155    46  12672.87   0.009  55.000   0.000   0.003   0.000   0.462     0.001     0.004
 2020 156    47  12672.39   0.013  55.000   0.000   0.003   0.000   0.485     0.000     0.005
 2020 157    48  12671.88   0.017  55.000   0.000   0.004   0.000   0.506     0.001     0.006
 2020 158    49  12671.36   0.023  55.000   0.000   0.006   0.000   0.518     0.002     0.008
 2020 159    50  12670.84   0.030  55.000   0.000   0.007   0.000   0.526     0.001     0.009
 2020 160    51  12670.29   0.037  55.000   0.000   0.007   0.000   0.551     0.000     0.009
 2020 161    52  12669.72   0.046  55.000   0.000   0.009   0.000   0.569     0.002     0.011
 2020 162    53  12669.20   0.046  55.000   0.000   0.000   0.000   0.521    -0.010     0.001
 2020 163    54  12668.71   0.058  55.000   0.000   0.012   0.000   0.482     0.013     0.014
 2020 164    55  12668.29   0.075  55.000   0.000   0.017   0.000   0.427     0.005     0.019
 2020 165    56  12667.90   0.095  55.000   0.000   0.020   0.000   0.387     0.002     0.021
 2020 166    57  12667.53   0.119  55.000   0.000   0.024   0.000   0.375     0.004     0.025
 2020 167    58  12667.07   0.145  55.000   0.000   0.027   0.000   0.455     0.004     0.029
 2020 168    59  12666.55   0.173  55.000   0.000   0.027   0.000   0.519    -0.000     0.029
 2020 169    60  12665.98   0.204  55.000   0.000   0.031   0.000   0.569     0.005     0.033
 2020 170    61  12665.38   0.238  55.000   0.000   0.034   0.000   0.605     0.002     0.036
 2020 171    62  12664.79   0.271  55.000   0.000   0.034   0.000   0.592     0.000     0.036
 2020 172    63  12664.25   0.305  55.000   0.000   0.035   0.000   0.534     0.001     0.037
 2020 173    64  12663.76   0.340  55.000   0.000   0.035   0.000   0.492     0.000     0.037
 2020 174    65  12663.29   0.374  55.000   0.000   0.036   0.000   0.470    -0.001     0.036
 2020 175    66  12662.87   0.409  55.000   0.000   0.036   0.000   0.423     0.000     0.036
 2020 176    67  12662.46   0.445  55.000   0.000   0.036   0.000   0.413     0.001     0.037
 2020 177    68  12662.02   0.481  55.000   0.000   0.037   0.000   0.436     0.001     0.038
 2020 178    69  12661.56   0.517  55.000   0.000   0.037   0.000   0.462     0.000     0.038
 2020 179    70  12661.10   0.555  55.000   0.000   0.038   0.000   0.460     0.001     0.039
 2020 180    71  12660.62   0.595  55.000   0.000   0.038   0.000   0.480     0.001     0.040
 2020 181    72  12660.11   0.635  55.000   0.000   0.039   0.000   0.511     0.001     0.040
 2020 182    73  12659.58   0.676  55.000   0.000   0.039   0.000   0.528    -0.001     0.039
 2020 183    74  12659.09   0.718  55.000   0.000   0.039   0.000   0.484     0.001     0.040
 2020 184    75  12658.63   0.760  55.000   0.000   0.040   0.000   0.456    -0.000     0.040
 2020 185    76  12658.18   0.803  55.000   0.000   0.040   0.000   0.447     0.002     0.042
 2020 186    77  12657.75   0.847  55.000   0.000   0.041   0.000   0.431     0.001     0.043
 2020 187    78  12657.34   0.892  55.000   0.000   0.041   0.000   0.402    -0.001     0.042
 2020 188    79  12656.92   0.937  55.000   0.000   0.041   0.000   0.420     0.001     0.042
 2020 189    80  12656.47   0.983  55.000   0.000   0.042   0.000   0.439     0.001     0.043
 2020 190    81  12656.03   1.030  55.000   0.000   0.042   0.000   0.441    -0.000     0.043
 2020 191    82  12655.58   1.078  55.000   0.000   0.042   0.000   0.442     0.000     0.043
 2020 192    83  12655.12   1.127  55.000   0.000   0.043   0.000   0.458    -0.001     0.043
 2020 193    84  12654.65   1.177  55.000   0.000   0.043   0.000   0.463     0.001     0.044
 2020 194    85  12654.20   1.227  55.000   0.000   0.044   0.000   0.444     0.000     0.044
 2020 195    86  12653.77   1.278  55.000   0.000   0.044   0.000   0.419     0.001     0.045
 2020 196    87  12653.32   1.330  55.000   0.000   0.044   0.000   0.440     0.000     0.046
 2020 197    88  12652.87   1.384  55.000   0.000   0.045   0.000   0.449     0.002     0.047
 2020 198    89  12652.42   1.437  55.000   0.000   0.045   0.000   0.440    -0.000     0.047
 2020 199    90  12651.96   1.491  55.000   0.000   0.046   0.000   0.451     0.000     0.047
 2020 200    91  12651.48   1.546  55.000   0.000   0.046   0.000   0.473     0.001     0.048
 2020 201    92  12651.01   1.601  55.000   0.000   0.046   0.000   0.461     0.000     0.049
 2020 202    93  12650.52   1.657  55.000   0.000   0.047   0.000   0.475     0.000     0.049
 2020 203    94  12650.03   1.712  55.000   0.000   0.047   0.000   0.479    -0.001     0.048
 2020 204    95  12649.57   1.767  55.000   0.000   0.048   0.000   0.458     0.002     0.050
 2020 205    96  12649.12   1.822  55.000   0.000   0.048   0.000   0.443    -0.000     0.049
 2020 206    97  12648.66   1.877  55.000   0.000   0.048   0.000   0.452    -0.001     0.049
 2020 207    98  12648.18   1.933  55.000   0.000   0.048   0.000   0.470     0.001     0.050
 2020 208    99  12647.69   1.988  55.000   0.000   0.049   0.000   0.486     0.001     0.050
 2020 209   100  12647.18   2.044  55.000   0.000   0.049   0.000   0.499    -0.000     0.050
 2020 210   101  12646.68   2.100  55.000   0.000   0.049   0.000   0.494     0.001     0.051
 2020 211   102  12646.19   2.154  55.000   0.000   0.050   0.000   0.484    -0.001     0.050
 2020 212   103  12645.70   2.211  55.000   0.000   0.050   0.000   0.486     0.001     0.051
 2020 213   104  12645.24   2.267  55.000   0.000   0.050   0.000   0.455     0.000     0.051
 2020 214   105  12644.77   2.325  55.000   0.000   0.051   0.000   0.467     0.000     0.051
 2020 215   106  12644.29   2.382  55.000   0.000   0.051   0.000   0.466     0.001     0.052
 2020 216   107  12643.85   2.437  55.000   0.000   0.051   0.000   0.436    -0.000     0.052
 2020 217   108  12643.44   2.492  55.000   0.000   0.051   0.000   0.406    -0.000     0.052
 2020 218   109  12643.04   2.546  55.000   0.000   0.052   0.000   0.407     0.001     0.053
 2020 219   110  12642.62   2.599  55.000   0.000   0.052   0.000   0.419     0.001     0.054
 2020 220   111  12642.19   2.652  55.000   0.000   0.052   0.000   0.426    -0.001     0.052
 2020 221   112  12641.71   2.705  55.000   0.000   0.053   0.000   0.473     0.001     0.053
 2020 222   113  12641.21   2.757  55.000   0.000   0.053   0.000   0.507     0.000     0.053
 2020 223   114  12640.68   2.808  55.000   0.000   0.053   0.000   0.534     0.000     0.054
 2020 224   115  12640.14   2.858  55.000   0.000   0.054   0.000   0.536     0.001     0.055
 2020 225   116  12639.61   2.908  55.000   0.000   0.054   0.000   0.539    -0.000     0.055
 2020 226   117  12639.09   2.957  55.000   0.000   0.054   0.000   0.529     0.000     0.055
 2020 227   118  12638.55   3.005  55.000   0.000   0.055   0.000   0.541    -0.001     0.055
 2020 228   119  12638.03   3.053  55.000   0.000   0.055   0.000   0.528     0.002     0.056
 2020 229   120  12637.52   3.102  55.000   0.000   0.055   0.000   0.515     0.000     0.056
 2020 230   121  12637.01   3.151  55.000   0.000   0.056   0.000   0.522     0.001     0.057
 2020 231   122  12636.51   3.200  55.000   0.000   0.056   0.000   0.504    -0.001     0.057
 2020 232   123  12636.02   3.248  55.000   0.000   0.056   0.000   0.500     0.000     0.057
 2020 233   124  12635.51   3.296  55.000   0.000   0.057   0.000   0.516     0.000     0.057
 2020 234   125  12634.98   3.343  55.000   0.000   0.057   0.000   0.545     0.001     0.058
 2020 235   126  12634.44   3.389  55.000   0.000   0.057   0.000   0.550    -0.000     0.058
 2020 236   127  12633.88   3.435  55.000   0.000   0.058   0.000   0.569     0.001     0.059
 2020 237   128  12633.32   3.480  55.000   0.000   0.058   0.000   0.569    -0.001     0.058
 2020 238   129  12632.75   3.524  55.000   0.000   0.058   0.000   0.586     0.001     0.059
 2020 239   130  12632.17   3.568  55.000   0.000   0.059   0.000   0.595     0.001     0.060
 2020 240   131  12631.58   3.611  55.000   0.000   0.059   0.000   0.604     0.001     0.060
 2020 241   132  12630.99   3.653  55.000   0.000   0.059   0.000   0.608     0.000     0.061
 2020 242   133  12630.42   3.696  55.000   0.000   0.060   0.000   0.591     0.000     0.061
 2020 243   134  12629.89   3.739  55.000   0.000   0.060   0.000   0.542     0.000     0.061
 2020 244   135  12629.38   3.783  55.000   0.000   0.061   0.000   0.531     0.001     0.062
 2020 245   136  12628.91   3.828  55.000   0.000   0.061   0.000   0.481    -0.001     0.061
 2020 246   137  12628.48   3.875  55.000   0.000   0.061   0.000   0.446     0.001     0.062
 2020 247   138  12628.07   3.922  55.000   0.000   0.062   0.000   0.426    -0.000     0.062
 2020 248   139  12627.65   3.969  55.000   0.000   0.062   0.000   0.436     0.001     0.064
 2020 249   140  12627.24   4.016  55.000   0.000   0.062   0.000   0.422    -0.000     0.063
 2020 250   141  12626.81   4.062  55.000   0.000   0.062   0.000   0.450     0.001     0.064
 2020 251   142  12626.36   4.107  55.000   0.000   0.063   0.000   0.472     0.000     0.064
 2020 252   143  12625.92   4.153  55.000   0.000   0.063   0.000   0.456    -0.001     0.063
 2020 253   144  12625.54   4.200  55.000   0.000   0.063   0.000   0.393     0.001     0.065
 2020 254   145  12625.24   4.251  55.000   0.000   0.063   0.000   0.312    -0.000     0.064
 2020 255   146  12625.01   4.305  55.000   0.000   0.064   0.000   0.240     0.000     0.065
 2020 256   147  12624.82   4.361  55.000   0.000   0.064   0.000   0.193     0.001     0.065
 2020 257   148  12624.64   4.418  55.000   0.000   0.064   0.000   0.192    -0.000     0.065
 2020 258   149  12624.39   4.472  55.000   0.000   0.064   0.000   0.257     0.001     0.066
 2020 259   150  12624.09   4.522  55.000   0.000   0.064   0.000   0.320    -0.000     0.066
 2020 260   151  12623.72   4.570  55.000   0.000   0.064   0.000   0.380     0.000     0.066
 2020 261   152  12623.36   4.618  55.000   0.000   0.064   0.000   0.385     0.001     0.067
 2020 262   153  12622.99   4.665  55.000   0.000   0.065   0.000   0.383    -0.000     0.067
 2020 263   154  12622.62   4.712  55.000   0.000   0.065   0.000   0.382    -0.001     0.066
 2020 264   155  12622.25   4.758  55.000   0.000   0.065   0.000   0.396    -0.000     0.066
 2020 265   156  12621.87   4.738  55.000   0.000   0.000   0.000   0.399    -0.064     0.002
 2020 266   157  12621.46   4.716  55.000   0.000   0.000   0.000   0.431    -0.000     0.002
 2020 267   158  12621.02   4.692  55.000   0.000   0.000   0.000   0.461    -0.001     0.001
 2020 268   159  12620.58   4.667  55.000   0.000   0.000   0.000   0.473     0.001     0.002


!                                        INITIAL Year/Doy      FINAL Year/Doy
!                                                2020/110            2020/268
!SOIL N BALANCE                                 -----------kg N/ha-----------

!   Soil Humus N                                 12681.62            12620.58
!   Soil Litter N                                    0.00                4.67
!   N in Surface Residue                             0.00               55.00

!   Added to / Removed from Soil:
!   N in Harvest Residues from Previous Crop         0.00
!   N from Organic Applications                     55.00
!   N from senesced plant matter                     5.05
!   N immobilized                                    0.00
!   N mineralized                                                       61.43

!   Total N balance                              12741.67            12741.68
!   Balance                                                             0.002
