*WATER BALANCE OUTPUT FILE

*DSSAT Cropping System Model Ver. 4.8.2.000 -release  MAY 26, 2025 18:07:50

*RUN   1        : farm_23                   MZCER048 UNLI2309    1
 MODEL          : MZCER048 - Maize
 EXPERIMENT     : UNLI2309 MZ PIO1366
 DATA PATH      :
 TREATMENT  1   : farm_23                   MZCER048
  
@YEAR DOY   DAS    SWTD    FWTD    SNTD   MWTD   IRRD   PRED  RESAD   LFLOD  MEVAP   DRND   ROFD   FROD   ESAD   EPAD   EFAD   TDFD    WBAL   CUMWBAL        TOTS    TOTU    TOTX    TOTT    TOTL
 2020 109     0  425.29    0.00    0.00   0.87   0.00   0.00   0.00    0.00   0.00   0.00   0.00   0.00   0.00   0.00   0.00   0.00    0.00      0.00        0.00    0.00    0.00    0.00    0.00
 2020 110     1  426.13    0.00    0.00   1.17   0.00   2.00   0.00    0.00   0.58   0.00   0.00   0.00   0.28   0.00   0.00   0.00    0.00      0.00        1.13   -0.00    0.00    0.00    0.00
 2020 111     2  426.15    0.00    0.00   1.39   0.00   0.30   0.87    0.00   0.95   0.00   0.00   0.00   0.00   0.00   0.00   0.00   -0.00      0.00        0.01    0.00    0.00    0.00    0.00
 2020 112     3  426.15    0.00    0.00   0.27   0.00   0.00   0.00    0.00   1.12   0.00   0.00   0.00   0.00   0.00   0.00   0.00   -0.00      0.00        0.00   -0.00    0.00    0.00    0.00
 2020 113     4  426.12    0.00    0.00   0.05   0.00   0.00   0.00    0.00   0.22   0.00   0.00   0.00   0.03   0.00   0.00   0.00   -0.00      0.00        0.00    0.00    0.00    0.00    0.00
 2020 114     5  425.98    0.00    0.00   0.96   0.00   1.00   0.00    0.00   0.04   0.00   0.00   0.00   0.19   0.00   0.00   0.00    0.00      0.00        0.05   -0.00    0.00    0.00    0.00
 2020 115     6  429.20    0.00    0.00   2.77   0.00   5.80   0.00    0.00   0.78   0.00   0.00   0.00   0.00   0.00   0.00   0.00    0.00      0.00        3.22    0.00    0.00    0.00    0.00
 2020 116     7  429.20    0.00    0.00   0.80   0.00   0.00   0.00    0.00   1.97   0.00   0.00   0.00   0.00   0.00   0.00   0.00    0.00      0.00       -0.00   -0.00    0.00    0.00    0.00
 2020 117     8  429.20    0.00    0.00   0.15   0.00   0.00   0.00    0.00   0.65   0.00   0.00   0.00   0.00   0.00   0.00   0.00   -0.00      0.00        0.00    0.00    0.00    0.00    0.00
 2020 118     9  429.04    0.00    0.00   0.03   0.00   0.00   0.00    0.00   0.12   0.00   0.00   0.00   0.16   0.00   0.00   0.00   -0.00      0.00        0.00   -0.00    0.00    0.00    0.00
 2020 119    10  428.80    0.00    0.00   0.01   0.00   0.00   0.00    0.00   0.02   0.00   0.00   0.00   0.24   0.00   0.00   0.00    0.00      0.00        0.00    0.00    0.00    0.00    0.00
 2020 120    11  428.52    0.00    0.00   0.00   0.00   0.00   0.00    0.00   0.00   0.00   0.00   0.00   0.27   0.00   0.00   0.00   -0.00      0.00        0.00    0.00    0.00    0.00    0.00
 2020 121    12  428.26    0.00    0.00   0.00   0.00   0.00   0.00    0.00   0.00   0.00   0.00   0.00   0.27   0.00   0.00   0.00   -0.00      0.00        0.00    0.00    0.00    0.00    0.00
 2020 122    13  453.35    0.00    0.00   0.00  25.40   0.00   0.00    0.00   0.00   0.00   0.00   0.00   0.31   0.00   0.00   0.00    0.00      0.00       25.40    0.00    0.00    0.00    0.00
 2020 123    14  454.23    0.00    0.00   3.50   0.00   4.60   0.00    0.00   0.00   0.00   0.00   0.00   0.22   0.00   0.00   0.00    0.00      0.00        1.10    0.00    0.00    0.00    0.00
 2020 124    15  464.63    0.00    0.00   1.51   0.00  10.40   0.00    0.00   1.99   0.00   0.00   0.00   0.00   0.00   0.00   0.00   -0.00      0.00       10.40   -0.00    0.00    0.00    0.00
 2020 125    16  508.36    0.00    0.00   3.58  25.40  21.60   0.00    0.00   1.20   0.00   0.00   0.00   0.00   0.00   0.00   0.00   -0.00      0.00       43.73   -0.00    0.00    0.00    0.00
 2020 126    17  508.36    0.00    0.00   1.49   0.00   0.00   0.00    0.00   2.09   0.00   0.00   0.00   0.00   0.00   0.00   0.00    0.00      0.00        0.00   -0.00    0.00    0.00    0.00
 2020 127    18  501.41    0.00    0.00   0.29   0.00   0.00   0.00    0.00   1.21   6.95   0.00   0.00   0.00   0.00   0.00   0.00    0.00      0.00       -6.95   -0.00    0.00    0.00    0.00
 2020 128    19  497.30    0.00    0.00   0.06   0.00   0.00   0.00    0.00   0.23   4.05   0.00   0.00   0.06   0.00   0.00   0.00    0.00      0.00       -4.05    0.00    0.00    0.00    0.00
 2020 129    20  522.46    0.00    0.00   0.01  25.40   0.00   0.00    0.00   0.04   0.00   0.00   0.00   0.24   0.00   0.00   0.00    0.00      0.00       25.40   -0.00    0.00    0.00    0.00
 2020 130    21  505.66    0.00    0.00   0.00   0.00   0.00   0.00    0.00   0.01  16.60   0.00   0.00   0.20   0.00   0.00   0.00    0.00      0.00      -16.60    0.00    0.00    0.00    0.00
 2020 131    22  499.51    0.00    0.00   0.00   0.00   0.00   0.00    0.00   0.00   5.91   0.00   0.00   0.23   0.00   0.00   0.00   -0.00      0.00       -5.91    0.00    0.00    0.00    0.00
 2020 132    23  524.41    0.00    0.00   0.00  25.40   0.00   0.00    0.00   0.00   0.43   0.00   0.00   0.06   0.00   0.00   0.00    0.00      0.00       24.97    0.00    0.00    0.00    0.00
 2020 133    24  506.84    0.00    0.00   0.00   0.00   0.00   0.00    0.00   0.00  17.47   0.00   0.00   0.10   0.00   0.00   0.00   -0.00      0.00      -17.47    0.00    0.00    0.00    0.00
 2020 134    25  500.42    0.00    0.00   0.00   0.00   0.00   0.00    0.00   0.00   6.24   0.00   0.00   0.17   0.00   0.00   0.00    0.00      0.00       -6.24    0.00    0.00    0.00    0.00
 2020 135    26  497.91    0.00    0.00   0.00   0.00   0.00   0.00    0.00   0.00   2.21   0.00   0.00   0.30   0.00   0.00   0.00    0.00      0.00       -2.21    0.00    0.00    0.00    0.00
 2020 136    27  535.76    0.00    0.00   3.50  25.40  17.00   0.00    0.00   0.00   0.85   0.00   0.00   0.20   0.00   0.00   0.00    0.00      0.00       38.05    0.00    0.00    0.00    0.00
 2020 137    28  543.52    0.00    0.00   1.51   0.00   9.40   0.00    0.00   1.99   1.65   0.00   0.00   0.00   0.00   0.00   0.00    0.00      0.00        7.75    0.00    0.00    0.00    0.00
 2020 138    29  513.76    0.00    0.00   0.29   0.00   0.00   0.00    0.00   1.22  29.75   0.00   0.00   0.00   0.00   0.00   0.00   -0.00      0.00      -29.75    0.00    0.00    0.00    0.00
 2020 139    30  537.84    0.00    0.00   0.06  25.40   0.00   0.00    0.00   0.23   1.27   0.00   0.00   0.06   0.00   0.00   0.00    0.00      0.00       24.13    0.00    0.00    0.00    0.00
 2020 140    31  511.20    0.00    0.00   0.01   0.00   0.00   0.00    0.00   0.05  26.35   0.00   0.00   0.30   0.00   0.00   0.00   -0.00      0.00      -26.35    0.00    0.00    0.00    0.00
 2020 141    32  501.09    0.00    0.00   0.00   0.00   0.00   0.00    0.00   0.01   9.54   0.00   0.00   0.56   0.01   0.00   0.00    0.00      0.00       -9.54    0.00   -0.01    0.00    0.00
 2020 142    33  500.38    0.00    0.00   1.90   0.00   2.00   0.00    0.00   0.00   0.64   0.00   0.00   0.17   0.00   0.00   0.00   -0.00      0.00       -0.54    0.00   -0.00    0.00    0.00
 2020 143    34  524.97    0.00    0.00   0.65  25.40   0.30   0.00    0.00   1.54   0.81   0.00   0.00   0.00   0.01   0.00   0.00   -0.00      0.00       24.60   -0.00   -0.01    0.00    0.00
 2020 144    35  523.94    0.00    0.00   3.26   0.00   3.30   0.00    0.00   0.53   1.18   0.00   0.00   0.00   0.02   0.00   0.00    0.00      0.00       -1.01    0.00   -0.02    0.00    0.00
 2020 145    36  505.92    0.00    0.00   0.63   0.00   0.00   0.00    0.00   2.63  18.01   0.00   0.00   0.00   0.02   0.00   0.00   -0.00      0.00      -18.01    0.00   -0.02    0.00    0.00
 2020 146    37  540.12    0.00    0.00   3.53  25.40  13.20   0.00    0.00   0.51   0.97   0.00   0.00   0.00   0.02   0.00   0.00   -0.00      0.00       34.22    0.00   -0.02    0.00    0.00
 2020 147    38  512.38    0.00    0.00   0.68   0.00   0.00   0.00    0.00   2.85  27.72   0.00   0.00   0.00   0.03   0.00   0.00   -0.00      0.00      -27.72    0.00   -0.03    0.00    0.00
 2020 148    39  501.91    0.00    0.00   0.13   0.00   0.00   0.00    0.00   0.55  10.42   0.00   0.00   0.01   0.04   0.00   0.00   -0.00      0.00      -10.42    0.00   -0.04    0.00    0.00
 2020 149    40  498.06    0.00    0.00   0.03   0.00   0.00   0.00    0.00   0.11   3.41   0.00   0.00   0.40   0.04   0.00   0.00    0.00      0.00       -3.41    0.00   -0.04    0.00    0.00
 2020 150    41  496.47    0.00    0.00   0.00   0.00   0.00   0.00    0.00   0.02   1.00   0.00   0.00   0.54   0.05   0.00   0.00    0.00      0.00       -1.00    0.00   -0.05    0.00    0.00
 2020 151    42  495.85    0.00    0.00   0.76   0.00   0.80   0.00    0.00   0.00   0.00   0.00   0.00   0.57   0.09   0.00   0.00   -0.00      0.00        0.04    0.00   -0.09    0.00    0.00
 2020 152    43  495.73    0.00    0.00   0.15   0.00   0.00   0.00    0.00   0.61   0.00   0.00   0.00   0.00   0.12   0.00   0.00    0.00      0.00        0.00   -0.00   -0.12    0.00    0.00
 2020 153    44  495.09    0.00    0.00   0.03   0.00   0.00   0.00    0.00   0.12   0.00   0.00   0.00   0.46   0.18   0.00   0.00    0.00      0.00        0.00    0.00   -0.18    0.00    0.00
 2020 154    45  494.34    0.00    0.00   0.01   0.00   0.00   0.00    0.00   0.02   0.00   0.00   0.00   0.51   0.24   0.00   0.00   -0.00      0.00        0.00    0.00   -0.24    0.00    0.00
 2020 155    46  493.50    0.00    0.00   0.00   0.00   0.00   0.00    0.00   0.00   0.00   0.00   0.00   0.53   0.32   0.00   0.00    0.00      0.00        0.00   -0.00   -0.32    0.00    0.00
 2020 156    47  492.57    0.00    0.00   0.00   0.00   0.00   0.00    0.00   0.00   0.00   0.00   0.00   0.54   0.39   0.00   0.00   -0.00      0.00        0.00   -0.00   -0.39    0.00    0.00
 2020 157    48  491.44    0.00    0.00   0.00   0.00   0.00   0.00    0.00   0.00   0.00   0.00   0.00   0.59   0.54   0.00   0.00    0.00      0.00        0.00   -0.00   -0.54    0.00    0.00
 2020 158    49  490.43    0.00    0.00   1.24   0.00   1.30   0.00    0.00   0.00   0.00   0.00   0.00   0.50   0.57   0.00   0.00    0.00      0.00        0.06   -0.00   -0.57    0.00    0.00
 2020 159    50  489.56    0.00    0.00   0.24   0.00   0.00   0.00    0.00   1.00   0.00   0.00   0.00   0.00   0.87   0.00   0.00    0.00      0.00        0.00    0.00   -0.87    0.00    0.00
 2020 160    51  488.43    0.00    0.00   2.42   0.00   2.50   0.00    0.00   0.19   0.00   0.00   0.00   0.32   0.94   0.00   0.00   -0.00      0.00        0.12    0.00   -0.94    0.00    0.00
 2020 161    52  488.97    0.00    0.00   3.04   0.00   2.00   0.00    0.00   0.65   0.00   0.00   0.00   0.00   0.19   0.00   0.00    0.00      0.00        0.73    0.00   -0.19    0.00    0.00
 2020 162    53  487.91    0.00    0.00   0.59   0.00   0.00   0.00    0.00   2.46   0.00   0.00   0.00   0.00   1.06   0.00   0.00    0.00      0.00        0.00    0.00   -1.06    0.00    0.00
 2020 163    54  486.78    0.00    0.00   0.11   0.00   0.00   0.00    0.00   0.47   0.00   0.00   0.00   0.00   1.12   0.00   0.00    0.00      0.00        0.00   -0.00   -1.12    0.00    0.00
 2020 164    55  485.13    0.00    0.00   0.02   0.00   0.00   0.00    0.00   0.09   0.00   0.00   0.00   0.34   1.32   0.00   0.00   -0.00      0.00        0.00    0.00   -1.32    0.00    0.00
 2020 165    56  483.18    0.00    0.00   0.00   0.00   0.00   0.00    0.00   0.02   0.00   0.00   0.00   0.45   1.50   0.00   0.00    0.00      0.00        0.00    0.00   -1.50    0.00    0.00
 2020 166    57  481.29    0.00    0.00   0.00   0.00   0.00   0.00    0.00   0.00   0.00   0.00   0.00   0.40   1.49   0.00   0.00    0.00      0.00        0.00    0.00   -1.49    0.00    0.00
 2020 167    58  479.00    0.00    0.00   0.00   0.00   0.00   0.00    0.00   0.00   0.00   0.00   0.00   0.42   1.87   0.00   0.00    0.00      0.00        0.00    0.00   -1.87    0.00    0.00
 2020 168    59  476.37    0.00    0.00   0.00   0.00   0.00   0.00    0.00   0.00   0.00   0.00   0.00   0.42   2.21   0.00   0.00   -0.00      0.00        0.00    0.00   -2.21    0.00    0.00
 2020 169    60  473.55    0.00    0.00   0.00   0.00   0.00   0.00    0.00   0.00   0.00   0.00   0.00   0.39   2.42   0.00   0.00   -0.00      0.00        0.00    0.00   -2.42    0.00    0.00
 2020 170    61  471.46    0.00    0.00   0.00   0.00   0.00   0.00    0.00   0.00   0.00   0.00   0.00   0.25   1.84   0.00   0.00    0.00      0.00        0.00    0.00   -1.84    0.00    0.00
 2020 171    62  469.81    0.00    0.00   2.19   0.00   2.30   0.00    0.00   0.00   0.00   0.00   0.00   0.19   1.58   0.00   0.00    0.00      0.00        0.11    0.00   -1.58    0.00    0.00
 2020 172    63  467.47    0.00    0.00   0.42   0.00   0.00   0.00    0.00   1.77   0.00   0.00   0.00   0.00   2.35   0.00   0.00    0.00      0.00        0.00   -0.00   -2.35    0.00    0.00
 2020 173    64  465.21    0.00    0.00   0.08   0.00   0.00   0.00    0.00   0.34   0.00   0.00   0.00   0.00   2.26   0.00   0.00   -0.00      0.00        0.00   -0.00   -2.26    0.00    0.00
 2020 174    65  462.56    0.00    0.00   2.20   0.00   2.30   0.00    0.00   0.07   0.00   0.00   0.00   0.21   2.55   0.00   0.00   -0.00      0.00        0.11   -0.00   -2.55    0.00    0.00
 2020 175    66  460.02    0.00    0.00   0.42   0.00   0.00   0.00    0.00   1.78   0.00   0.00   0.00   0.00   2.55   0.00   0.00    0.00      0.00        0.00    0.00   -2.55    0.00    0.00
 2020 176    67  457.01    0.00    0.00   0.08   0.00   0.00   0.00    0.00   0.34   0.00   0.00   0.00   0.00   3.01   0.00   0.00    0.00      0.00        0.00    0.00   -3.01    0.00    0.00
 2020 177    68  454.20    0.00    0.00   1.73   0.00   1.80   0.00    0.00   0.07   0.00   0.00   0.00   0.20   2.69   0.00   0.00    0.00      0.00        0.09   -0.00   -2.69    0.00    0.00
 2020 178    69  450.99    0.00    0.00   0.62   0.00   0.30   0.00    0.00   1.39   0.00   0.00   0.00   0.00   3.23   0.00   0.00    0.00      0.00        0.01    0.00   -3.23    0.00    0.00
 2020 179    70  447.83    0.00    0.00   0.12   0.00   0.00   0.00    0.00   0.50   0.00   0.00   0.00   0.00   3.15   0.00   0.00    0.00      0.00        0.00   -0.00   -3.15    0.00    0.00
 2020 180    71  444.23    0.00    0.00   0.02   0.00   0.00   0.00    0.00   0.10   0.00   0.00   0.00   0.19   3.42   0.00   0.00    0.00      0.00        0.00    0.00   -3.42    0.00    0.00
 2020 181    72  440.33    0.00    0.00   0.00   0.00   0.00   0.00    0.00   0.02   0.00   0.00   0.00   0.26   3.64   0.00   0.00    0.00      0.00        0.00    0.00   -3.64    0.00    0.00
 2020 182    73  437.20    0.00    0.00   0.00   0.00   0.00   0.00    0.00   0.00   0.00   0.00   0.00   0.22   2.91   0.00   0.00    0.00      0.00        0.00   -0.00   -2.91    0.00    0.00
 2020 183    74  433.83    0.00    0.00   0.00   0.00   0.00   0.00    0.00   0.00   0.00   0.00   0.00   0.25   3.12   0.00   0.00   -0.00      0.00        0.00    0.00   -3.12    0.00    0.00
 2020 184    75  430.97    0.00    0.00   0.00   0.00   0.00   0.00    0.00   0.00   0.00   0.00   0.00   0.21   2.65   0.00   0.00    0.00      0.00        0.00   -0.00   -2.65    0.00    0.00
 2020 185    76  427.31    0.00    0.00   0.00   0.00   0.00   0.00    0.00   0.00   0.00   0.00   0.00   0.28   3.38   0.00   0.00   -0.00      0.00        0.00    0.00   -3.38    0.00    0.00
 2020 186    77  423.66    0.00    0.00   0.00   0.00   0.00   0.00    0.00   0.00   0.00   0.00   0.00   0.29   3.36   0.00   0.00    0.00      0.00        0.00   -0.00   -3.36    0.00    0.00
 2020 187    78  420.48    0.00    0.00   0.00   0.00   0.00   0.00    0.00   0.00   0.00   0.00   0.00   0.26   2.93   0.00   0.00    0.00      0.00        0.00   -0.00   -2.93    0.00    0.00
 2020 188    79  416.88    0.00    0.00   0.00   0.00   0.00   0.00    0.00   0.00   0.00   0.00   0.00   0.30   3.30   0.00   0.00    0.00      0.00        0.00    0.00   -3.30    0.00    0.00
 2020 189    80  413.20    0.00    0.00   0.00   0.00   0.00   0.00    0.00   0.00   0.00   0.00   0.00   0.31   3.37   0.00   0.00    0.00      0.00        0.00    0.00   -3.37    0.00    0.00
 2020 190    81  409.99    0.00    0.00   3.14   0.00   3.30   0.00    0.00   0.00   0.00   0.00   0.00   0.30   3.07   0.00   0.00    0.00      0.00        0.16   -0.00   -3.07    0.00    0.00
 2020 191    82  421.92    0.00    0.00   1.23   0.00  15.20   0.00    0.00   2.27   0.00   0.00   0.00   0.00   2.91   0.00   0.00    0.00      0.00       14.84    0.00   -2.91    0.00    0.00
 2020 192    83  419.00    0.00    0.00   0.24   0.00   0.00   0.00    0.00   0.99   0.00   0.00   0.00   0.00   2.92   0.00   0.00    0.00      0.00        0.00    0.00   -2.92    0.00    0.00
 2020 193    84  416.09    0.00    0.00   0.05   0.00   0.00   0.00    0.00   0.19   0.00   0.00   0.00   0.10   2.81   0.00   0.00    0.00      0.00        0.00    0.00   -2.81    0.00    0.00
 2020 194    85  413.28    0.00    0.00   0.01   0.00   0.00   0.00    0.00   0.04   0.00   0.00   0.00   0.25   2.56   0.00   0.00   -0.00      0.00        0.00   -0.00   -2.56    0.00    0.00
 2020 195    86  439.41    0.00    0.00   3.50   0.00  32.50   0.00    0.00   0.01   0.00   0.00   0.00   0.28   2.59   0.00   0.00    0.00      0.00       29.00   -0.00   -2.59    0.00    0.00
 2020 196    87  437.62    0.00    0.00   2.03   0.00   0.00   0.00    0.00   1.47   0.00   0.00   0.00   0.00   1.79   0.00   0.00    0.00      0.00        0.00    0.00   -1.79    0.00    0.00
 2020 197    88  435.13    0.00    0.00   0.39   0.00   0.00   0.00    0.00   1.64   0.00   0.00   0.00   0.00   2.49   0.00   0.00    0.00      0.00       -0.00   -0.00   -2.49    0.00    0.00
 2020 198    89  432.46    0.00    0.00   0.08   0.00   0.00   0.00    0.00   0.32   0.00   0.00   0.00   0.01   2.67   0.00   0.00   -0.00      0.00       -0.00    0.00   -2.67    0.00    0.00
 2020 199    90  429.26    0.00    0.00   0.01   0.00   0.00   0.00    0.00   0.06   0.00   0.00   0.00   0.31   2.88   0.00   0.00    0.00      0.00        0.00   -0.00   -2.88    0.00    0.00
 2020 200    91  427.23    0.00    0.00   0.00   0.00   0.00   0.00    0.00   0.01   0.00   0.00   0.00   0.23   1.80   0.00   0.00    0.00      0.00        0.00    0.00   -1.80    0.00    0.00
 2020 201    92  424.70    0.00    0.00   0.00   0.00   0.00   0.00    0.00   0.00   0.00   0.00   0.00   0.31   2.22   0.00   0.00    0.00      0.00        0.00   -0.00   -2.22    0.00    0.00
 2020 202    93  422.41    0.00    0.00   0.29   0.00   0.30   0.00    0.00   0.00   0.00   0.00   0.00   0.29   2.02   0.00   0.00    0.00      0.00        0.01   -0.00   -2.02    0.00    0.00
 2020 203    94  420.11    0.00    0.00   0.05   0.00   0.00   0.00    0.00   0.23   0.00   0.00   0.00   0.11   2.19   0.00   0.00   -0.00      0.00        0.00    0.00   -2.19    0.00    0.00
 2020 204    95  417.38    0.00    0.00   0.01   0.00   0.00   0.00    0.00   0.04   0.00   0.00   0.00   0.33   2.40   0.00   0.00   -0.00      0.00        0.00    0.00   -2.40    0.00    0.00
 2020 205    96  415.26    0.00    0.00   0.00   0.00   0.00   0.00    0.00   0.01   0.00   0.00   0.00   0.29   1.83   0.00   0.00   -0.00      0.00        0.00    0.00   -1.83    0.00    0.00
 2020 206    97  417.44    0.00    0.00   3.50   0.00   8.10   0.00    0.00   0.00   0.00   0.00   0.00   0.36   2.06   0.00   0.00   -0.00      0.00        4.60   -0.00   -2.06    0.00    0.00
 2020 207    98  429.68    0.00    0.00   0.67   0.00  14.50   0.00    0.00   2.83   0.00   0.00   0.00   0.00   2.25   0.00   0.00    0.00      0.00       14.50    0.00   -2.25    0.00    0.00
 2020 208    99  428.91    0.00    0.00   0.13   0.00   0.00   0.00    0.00   0.54   0.00   0.00   0.00   0.00   0.78   0.00   0.00    0.00      0.00       -0.00   -0.00   -0.78    0.00    0.00
 2020 209   100  426.91    0.00    0.00   0.02   0.00   0.00   0.00    0.00   0.10   0.00   0.00   0.00   0.23   1.77   0.00   0.00    0.00      0.00        0.00    0.00   -1.77    0.00    0.00
 2020 210   101  424.57    0.00    0.00   0.00   0.00   0.00   0.00    0.00   0.02   0.00   0.00   0.00   0.38   1.96   0.00   0.00    0.00      0.00        0.00    0.00   -1.96    0.00    0.00
 2020 211   102  454.18    0.00    0.00   3.50   0.00  35.30   0.00    0.00   0.00   0.00   0.00   0.00   0.39   1.80   0.00   0.00    0.00      0.00       31.80   -0.00   -1.80    0.00    0.00
 2020 212   103  455.58    0.00    0.00   1.98   0.00   2.30   0.00    0.00   1.53   0.00   0.00   0.00   0.00   0.90   0.00   0.00    0.00      0.00        2.30   -0.00   -0.90    0.00    0.00
 2020 213   104  454.06    0.00    0.00   0.38   0.00   0.00   0.00    0.00   1.60   0.00   0.00   0.00   0.00   1.52   0.00   0.00    0.00      0.00       -0.00    0.00   -1.52    0.00    0.00
 2020 214   105  452.47    0.00    0.00   2.45   0.00   2.50   0.00    0.00   0.31   0.00   0.00   0.00   0.09   1.62   0.00   0.00   -0.00      0.00        0.12    0.00   -1.62    0.00    0.00
 2020 215   106  451.00    0.00    0.00   0.47   0.00   0.00   0.00    0.00   1.98   0.00   0.00   0.00   0.00   1.47   0.00   0.00    0.00      0.00        0.00   -0.00   -1.47    0.00    0.00
 2020 216   107  449.81    0.00    0.00   0.09   0.00   0.00   0.00    0.00   0.38   0.00   0.00   0.00   0.00   1.19   0.00   0.00   -0.00      0.00       -0.00    0.00   -1.19    0.00    0.00
 2020 217   108  448.59    0.00    0.00   0.02   0.00   0.00   0.00    0.00   0.07   0.00   0.00   0.00   0.20   1.02   0.00   0.00    0.00      0.00        0.00   -0.00   -1.02    0.00    0.00
 2020 218   109  446.80    0.00    0.00   0.00   0.00   0.00   0.00    0.00   0.01   0.00   0.00   0.00   0.40   1.40   0.00   0.00   -0.00      0.00        0.00    0.00   -1.40    0.00    0.00
 2020 219   110  445.10    0.00    0.00   0.00   0.00   0.00   0.00    0.00   0.00   0.00   0.00   0.00   0.39   1.30   0.00   0.00    0.00      0.00        0.00   -0.00   -1.30    0.00    0.00
 2020 220   111  443.32    0.00    0.00   0.00   0.00   0.00   0.00    0.00   0.00   0.00   0.00   0.00   0.43   1.35   0.00   0.00    0.00      0.01        0.00   -0.00   -1.35    0.00    0.00
 2020 221   112  442.00    0.00    0.00   2.19   0.00   2.30   0.00    0.00   0.00   0.00   0.00   0.00   0.36   1.08   0.00   0.00    0.00      0.01        0.11   -0.00   -1.08    0.00    0.00
 2020 222   113  440.81    0.00    0.00   0.42   0.00   0.00   0.00    0.00   1.77   0.00   0.00   0.00   0.00   1.18   0.00   0.00    0.00      0.01        0.00   -0.00   -1.18    0.00    0.00
 2020 223   114  439.57    0.00    0.00   0.08   0.00   0.00   0.00    0.00   0.34   0.00   0.00   0.00   0.07   1.17   0.00   0.00   -0.00      0.01        0.00    0.00   -1.17    0.00    0.00
 2020 224   115  438.20    0.00    0.00   0.02   0.00   0.00   0.00    0.00   0.07   0.00   0.00   0.00   0.33   1.04   0.00   0.00   -0.00      0.01        0.00   -0.00   -1.04    0.00    0.00
 2020 225   116  436.74    0.00    0.00   0.00   0.00   0.00   0.00    0.00   0.01   0.00   0.00   0.00   0.40   1.05   0.00   0.00    0.00      0.01        0.00   -0.00   -1.05    0.00    0.00
 2020 226   117  435.13    0.00    0.00   0.00   0.00   0.00   0.00    0.00   0.00   0.00   0.00   0.00   0.46   1.15   0.00   0.00   -0.00      0.00        0.00    0.00   -1.15    0.00    0.00
 2020 227   118  433.72    0.00    0.00   0.00   0.00   0.00   0.00    0.00   0.00   0.00   0.00   0.00   0.42   0.99   0.00   0.00    0.00      0.01        0.00   -0.00   -0.99    0.00    0.00
 2020 228   119  432.61    0.00    0.00   0.00   0.00   0.00   0.00    0.00   0.00   0.00   0.00   0.00   0.35   0.77   0.00   0.00   -0.00      0.00        0.00    0.00   -0.77    0.00    0.00
 2020 229   120  431.48    0.00    0.00   0.00   0.00   0.00   0.00    0.00   0.00   0.00   0.00   0.00   0.36   0.77   0.00   0.00    0.00      0.00        0.00   -0.00   -0.77    0.00    0.00
 2020 230   121  430.24    0.00    0.00   0.00   0.00   0.00   0.00    0.00   0.00   0.00   0.00   0.00   0.41   0.83   0.00   0.00    0.00      0.01        0.00    0.00   -0.83    0.00    0.00
 2020 231   122  428.99    0.00    0.00   0.00   0.00   0.00   0.00    0.00   0.00   0.00   0.00   0.00   0.42   0.83   0.00   0.00   -0.00      0.01        0.00   -0.00   -0.83    0.00    0.00
 2020 232   123  427.98    0.00    0.00   0.00   0.00   0.00   0.00    0.00   0.00   0.00   0.00   0.00   0.34   0.67   0.00   0.00   -0.00      0.01        0.00    0.00   -0.67    0.00    0.00
 2020 233   124  426.89    0.00    0.00   0.00   0.00   0.00   0.00    0.00   0.00   0.00   0.00   0.00   0.38   0.70   0.00   0.00    0.00      0.01        0.00   -0.00   -0.70    0.00    0.00
 2020 234   125  425.92    0.00    0.00   0.00   0.00   0.00   0.00    0.00   0.00   0.00   0.00   0.00   0.26   0.72   0.00   0.00    0.00      0.01        0.00    0.00   -0.72    0.00    0.00
 2020 235   126  424.85    0.00    0.00   0.00   0.00   0.00   0.00    0.00   0.00   0.00   0.00   0.00   0.40   0.67   0.00   0.00    0.00      0.01        0.00    0.00   -0.67    0.00    0.00
 2020 236   127  423.78    0.00    0.00   0.00   0.00   0.00   0.00    0.00   0.00   0.00   0.00   0.00   0.41   0.67   0.00   0.00    0.00      0.01        0.00    0.00   -0.67    0.00    0.00
 2020 237   128  422.73    0.00    0.00   0.00   0.00   0.00   0.00    0.00   0.00   0.00   0.00   0.00   0.41   0.64   0.00   0.00    0.00      0.01        0.00   -0.00   -0.64    0.00    0.00
 2020 238   129  421.68    0.00    0.00   0.00   0.00   0.00   0.00    0.00   0.00   0.00   0.00   0.00   0.41   0.63   0.00   0.00   -0.00      0.01        0.00    0.00   -0.63    0.00    0.00
 2020 239   130  420.67    0.00    0.00   0.00   0.00   0.00   0.00    0.00   0.00   0.00   0.00   0.00   0.41   0.61   0.00   0.00   -0.00      0.01        0.00    0.00   -0.61    0.00    0.00
 2020 240   131  419.72    0.00    0.00   0.00   0.00   0.00   0.00    0.00   0.00   0.00   0.00   0.00   0.39   0.55   0.00   0.00    0.00      0.01        0.00   -0.00   -0.55    0.00    0.00
 2020 241   132  418.86    0.00    0.00   0.00   0.00   0.00   0.00    0.00   0.00   0.00   0.00   0.00   0.36   0.51   0.00   0.00   -0.00      0.01        0.00   -0.00   -0.51    0.00    0.00
 2020 242   133  418.02    0.00    0.00   0.00   0.00   0.00   0.00    0.00   0.00   0.00   0.00   0.00   0.36   0.48   0.00   0.00    0.00      0.01        0.00    0.00   -0.48    0.00    0.00
 2020 243   134  417.09    0.00    0.00   0.00   0.00   0.00   0.00    0.00   0.00   0.00   0.00   0.00   0.41   0.52   0.00   0.00    0.00      0.01        0.00   -0.00   -0.52    0.00    0.00
 2020 244   135  416.30    0.00    0.00   0.00   0.00   0.00   0.00    0.00   0.00   0.00   0.00   0.00   0.35   0.44   0.00   0.00   -0.00      0.01        0.00    0.00   -0.44    0.00    0.00
 2020 245   136  415.52    0.00    0.00   0.00   0.00   0.00   0.00    0.00   0.00   0.00   0.00   0.00   0.36   0.43   0.00   0.00   -0.00      0.01        0.00   -0.00   -0.43    0.00    0.00
 2020 246   137  414.76    0.00    0.00   0.00   0.00   0.00   0.00    0.00   0.00   0.00   0.00   0.00   0.35   0.41   0.00   0.00    0.00      0.01        0.00    0.00   -0.41    0.00    0.00
 2020 247   138  413.97    0.00    0.00   0.00   0.00   0.00   0.00    0.00   0.00   0.00   0.00   0.00   0.37   0.42   0.00   0.00    0.00      0.01        0.00   -0.00   -0.42    0.00    0.00
 2020 248   139  413.19    0.00    0.00   0.00   0.00   0.00   0.00    0.00   0.00   0.00   0.00   0.00   0.38   0.41   0.00   0.00    0.00      0.01        0.00   -0.00   -0.41    0.00    0.00
 2020 249   140  412.46    0.00    0.00   0.00   0.00   0.00   0.00    0.00   0.00   0.00   0.00   0.00   0.36   0.37   0.00   0.00    0.00      0.01        0.00    0.00   -0.37    0.00    0.00
 2020 250   141  411.75    0.00    0.00   0.00   0.00   0.00   0.00    0.00   0.00   0.00   0.00   0.00   0.35   0.35   0.00   0.00    0.00      0.01        0.00    0.00   -0.35    0.00    0.00
 2020 251   142  411.17    0.00    0.00   0.00   0.00   0.00   0.00    0.00   0.00   0.00   0.00   0.00   0.29   0.29   0.00   0.00    0.00      0.01        0.00   -0.00   -0.29    0.00    0.00
 2020 252   143  416.69    0.00    0.00   3.50   0.00   9.10   0.00    0.00   0.00   0.00   0.00   0.00   0.04   0.04   0.00   0.00   -0.00      0.01        5.60    0.00   -0.04    0.00    0.00
 2020 253   144  418.57    0.00    0.00   2.54   0.00   2.00   0.00    0.00   0.96   0.00   0.00   0.00   0.00   0.12   0.00   0.00    0.00      0.01        2.00   -0.00   -0.12    0.00    0.00
 2020 254   145  418.39    0.00    0.00   0.61   0.00   0.00   0.00    0.00   1.93   0.00   0.00   0.00   0.00   0.19   0.00   0.00    0.00      0.01        0.00   -0.00   -0.19    0.00    0.00
 2020 255   146  418.38    0.00    0.00   2.30   0.00   2.30   0.00    0.00   0.49   0.00   0.00   0.00   0.00   0.12   0.00   0.00   -0.00      0.01        0.11    0.00   -0.12    0.00    0.00
 2020 256   147  418.19    0.00    0.00   0.44   0.00   0.00   0.00    0.00   1.86   0.00   0.00   0.00   0.00   0.19   0.00   0.00   -0.00      0.01        0.00   -0.00   -0.19    0.00    0.00
 2020 257   148  418.00    0.00    0.00   0.09   0.00   0.00   0.00    0.00   0.36   0.00   0.00   0.00   0.00   0.19   0.00   0.00   -0.00      0.01        0.00   -0.00   -0.19    0.00    0.00
 2020 258   149  417.63    0.00    0.00   0.02   0.00   0.00   0.00    0.00   0.07   0.00   0.00   0.00   0.21   0.16   0.00   0.00    0.00      0.01        0.00    0.00   -0.16    0.00    0.00
 2020 259   150  417.17    0.00    0.00   0.00   0.00   0.00   0.00    0.00   0.01   0.00   0.00   0.00   0.29   0.17   0.00   0.00    0.00      0.01        0.00    0.00   -0.17    0.00    0.00
 2020 260   151  416.76    0.00    0.00   0.00   0.00   0.00   0.00    0.00   0.00   0.00   0.00   0.00   0.26   0.15   0.00   0.00   -0.00      0.01        0.00    0.00   -0.15    0.00    0.00
 2020 261   152  416.36    0.00    0.00   0.00   0.00   0.00   0.00    0.00   0.00   0.00   0.00   0.00   0.26   0.14   0.00   0.00   -0.00      0.01        0.00    0.00   -0.14    0.00    0.00
 2020 262   153  415.93    0.00    0.00   0.00   0.00   0.00   0.00    0.00   0.00   0.00   0.00   0.00   0.29   0.14   0.00   0.00   -0.00      0.01        0.00   -0.00   -0.14    0.00    0.00
 2020 263   154  415.51    0.00    0.00   0.00   0.00   0.00   0.00    0.00   0.00   0.00   0.00   0.00   0.28   0.14   0.00   0.00   -0.00      0.01        0.00    0.00   -0.14    0.00    0.00
 2020 264   155  415.09    0.00    0.00   0.00   0.00   0.00   0.00    0.00   0.00   0.00   0.00   0.00   0.29   0.14   0.00   0.00   -0.00      0.01        0.00   -0.00   -0.14    0.00    0.00
 2020 265   156  414.73    0.00    0.00   0.95   0.00   1.00   0.00    0.00   0.00   0.00   0.00   0.00   0.28   0.13   0.00   0.00   -0.00      0.01        0.05    0.00   -0.13    0.00    0.00
 2020 266   157  414.59    0.00    0.00   0.18   0.00   0.00   0.00    0.00   0.77   0.00   0.00   0.00   0.00   0.13   0.00   0.00    0.00      0.01        0.00   -0.00   -0.13    0.00    0.00
 2020 267   158  414.35    0.00    0.00   0.04   0.00   0.00   0.00    0.00   0.15   0.00   0.00   0.00   0.12   0.12   0.00   0.00   -0.00      0.01        0.00   -0.00   -0.12    0.00    0.00
 2020 268   159  414.02    0.00    0.00   0.01   0.00   0.00   0.00    0.00   0.03   0.00   0.00   0.00   0.22   0.12   0.00   0.00   -0.00      0.01        0.00    0.00   -0.12    0.00    0.00

!     WATER BALANCE PARAMETERS
!     ========================                 --mm--

!     Soil H20 (start) on Year/day 2020/110    425.29
!     Soil H20 (final) on Year/day 2020/268    414.02
!     Effective Irrigation                     203.20
!     Precipitation                            234.90
!     Water added with new mulch                 0.87
!     Net lateral flow                           0.00
!     Drainage                                 193.43
!     Tiledrain flow                             0.00
!     Runoff                                     0.00
!     Mulch evaporation                         62.93
!     Soil Evaporation                          34.56
!     Transpiration                            160.20
!     Total evapotranspiration                 194.75
!     Total potential evapotranspiration       625.22

!     Initial mulch water content                0.87
!     Final mulch water content                  0.01

!     Final Balance                             0.006

