*WATER BALANCE OUTPUT FILE

*DSSAT Cropping System Model Ver. 4.8.2.000 -release  APR 04, 2025 03:01:04

*RUN   1        : farm_23                   MZCER048 UNLI2309    1
 MODEL          : MZCER048 - Maize
 EXPERIMENT     : UNLI2309 MZ PIO1366
 DATA PATH      :
 TREATMENT  1   : farm_23                   MZCER048
  
@YEAR DOY   DAS    SWTD    FWTD    SNTD   MWTD   IRRD   PRED  RESAD   LFLOD  MEVAP   DRND   ROFD   FROD   ESAD   EPAD   EFAD   TDFD    WBAL   CUMWBAL        TOTS    TOTU    TOTX    TOTT    TOTL
 2023 109     0  425.29    0.00    0.00   0.87   0.00   0.00   0.00    0.00   0.00   0.00   0.00   0.00   0.00   0.00   0.00   0.00    0.00      0.00        0.00    0.00    0.00    0.00    0.00
 2023 110     1  425.15    0.00    0.00   0.30   0.00   0.00   0.00    0.00   0.58   0.00   0.00   0.00   0.14   0.00   0.00   0.00    0.00      0.00        0.00   -0.00    0.00    0.00    0.00
 2023 111     2  425.15    0.00    0.00   0.93   0.00   0.00   0.87    0.00   0.24   0.00   0.00   0.00   0.00   0.00   0.00   0.00   -0.00      0.00        0.00    0.00    0.00    0.00    0.00
 2023 112     3  425.15    0.00    0.00   0.18   0.00   0.00   0.00    0.00   0.75   0.00   0.00   0.00   0.00   0.00   0.00   0.00    0.00      0.00        0.00   -0.00    0.00    0.00    0.00
 2023 113     4  425.11    0.00    0.00   0.03   0.00   0.00   0.00    0.00   0.14   0.00   0.00   0.00   0.03   0.00   0.00   0.00    0.00      0.00        0.00    0.00    0.00    0.00    0.00
 2023 114     5  424.95    0.00    0.00   0.01   0.00   0.00   0.00    0.00   0.03   0.00   0.00   0.00   0.16   0.00   0.00   0.00    0.00      0.00        0.00    0.00    0.00    0.00    0.00
 2023 115     6  424.81    0.00    0.00   0.00   0.00   0.00   0.00    0.00   0.01   0.00   0.00   0.00   0.14   0.00   0.00   0.00    0.00      0.00        0.00    0.00    0.00    0.00    0.00
 2023 116     7  424.61    0.00    0.00   0.00   0.00   0.00   0.00    0.00   0.00   0.00   0.00   0.00   0.20   0.00   0.00   0.00   -0.00      0.00        0.00   -0.00    0.00    0.00    0.00
 2023 117     8  424.41    0.00    0.00   0.00   0.00   0.00   0.00    0.00   0.00   0.00   0.00   0.00   0.20   0.00   0.00   0.00   -0.00      0.00        0.00    0.00    0.00    0.00    0.00
 2023 118     9  424.26    0.00    0.00   0.00   0.00   0.00   0.00    0.00   0.00   0.00   0.00   0.00   0.16   0.00   0.00   0.00    0.00      0.00        0.00   -0.00    0.00    0.00    0.00
 2023 119    10  424.01    0.00    0.00   0.00   0.00   0.00   0.00    0.00   0.00   0.00   0.00   0.00   0.25   0.00   0.00   0.00    0.00      0.00        0.00   -0.00    0.00    0.00    0.00
 2023 120    11  423.78    0.00    0.00   0.00   0.00   0.00   0.00    0.00   0.00   0.00   0.00   0.00   0.23   0.00   0.00   0.00   -0.00      0.00        0.00    0.00    0.00    0.00    0.00
 2023 121    12  423.55    0.00    0.00   0.00   0.00   0.00   0.00    0.00   0.00   0.00   0.00   0.00   0.23   0.00   0.00   0.00    0.00      0.00        0.00    0.00    0.00    0.00    0.00
 2023 122    13  423.31    0.00    0.00   0.00   0.00   0.00   0.00    0.00   0.00   0.00   0.00   0.00   0.24   0.00   0.00   0.00    0.00      0.00        0.00    0.00    0.00    0.00    0.00
 2023 123    14  423.07    0.00    0.00   0.00   0.00   0.00   0.00    0.00   0.00   0.00   0.00   0.00   0.25   0.00   0.00   0.00    0.00      0.00        0.00    0.00    0.00    0.00    0.00
 2023 124    15  436.07    0.00    0.00   3.50   0.00  16.80   0.00    0.00   0.00   0.00   0.00   0.00   0.30   0.00   0.00   0.00    0.00      0.00       13.30    0.00    0.00    0.00    0.00
 2023 125    16  450.57    0.00    0.00   0.92   0.00  14.50   0.00    0.00   2.58   0.00   0.00   0.00   0.00   0.00   0.00   0.00    0.00      0.00       14.50    0.00    0.00    0.00    0.00
 2023 126    17  450.58    0.00    0.00   0.46   0.00   0.30   0.00    0.00   0.74   0.00   0.00   0.00   0.00   0.00   0.00   0.00   -0.00      0.00        0.01    0.00    0.00    0.00    0.00
 2023 127    18  450.60    0.00    0.00   0.37   0.00   0.30   0.00    0.00   0.37   0.00   0.00   0.00   0.00   0.00   0.00   0.00    0.00      0.00        0.01    0.00    0.00    0.00    0.00
 2023 128    19  450.58    0.00    0.00   0.07   0.00   0.00   0.00    0.00   0.30   0.00   0.00   0.00   0.01   0.00   0.00   0.00   -0.00      0.00        0.00    0.00    0.00    0.00    0.00
 2023 129    20  450.47    0.00    0.00   2.67   0.00   2.80   0.00    0.00   0.06   0.00   0.00   0.00   0.25   0.00   0.00   0.00   -0.00      0.00        0.14    0.00    0.00    0.00    0.00
 2023 130    21  471.99    0.00    0.00   1.71   0.00  22.40   0.00    0.00   1.85   0.00   0.00   0.00   0.00   0.00   0.00   0.00   -0.00      0.00       21.52    0.00    0.00    0.00    0.00
 2023 131    22  489.84    0.00    0.00   3.57   0.00  21.10   0.00    0.00   1.38   0.00   0.00   0.00   0.00   0.00   0.00   0.00    0.00      0.00       17.86   -0.00    0.00    0.00    0.00
 2023 132    23  513.13    0.00    0.00   2.60   0.00  24.60   0.00    0.00   2.27   0.00   0.00   0.00   0.00   0.00   0.00   0.00   -0.00      0.00       23.29   -0.00   -0.00    0.00    0.00
 2023 133    24  513.18    0.00    0.00   1.45   0.00   1.00   0.00    0.00   2.10   0.00   0.00   0.00   0.00   0.01   0.00   0.00    0.00      0.00        0.05   -0.00   -0.01    0.00    0.00
 2023 134    25  513.19    0.00    0.00   0.90   0.00   0.30   0.00    0.00   0.84   0.00   0.00   0.00   0.00   0.00   0.00   0.00   -0.00      0.00        0.01   -0.00   -0.00    0.00    0.00
 2023 135    26  513.20    0.00    0.00   0.46   0.00   0.30   0.00    0.00   0.73   0.00   0.00   0.00   0.00   0.00   0.00   0.00   -0.00      0.00        0.01    0.00   -0.00    0.00    0.00
 2023 136    27  505.85    0.00    0.00   0.09   0.00   0.00   0.00    0.00   0.37   7.23   0.00   0.00   0.10   0.01   0.00   0.00    0.00      0.00       -7.23   -0.00   -0.01    0.00    0.00
 2023 137    28  505.56    0.00    0.00   3.50   0.00   4.30   0.00    0.00   0.07   0.69   0.00   0.00   0.39   0.02   0.00   0.00    0.00      0.00        0.12    0.00   -0.02    0.00    0.00
 2023 138    29  498.84    0.00    0.00   0.67   0.00   0.00   0.00    0.00   2.83   6.70   0.00   0.00   0.00   0.02   0.00   0.00   -0.00      0.00       -6.70   -0.00   -0.02    0.00    0.00
 2023 139    30  497.44    0.00    0.00   0.13   0.00   0.00   0.00    0.00   0.54   1.37   0.00   0.00   0.00   0.03   0.00   0.00    0.00      0.00       -1.37    0.00   -0.03    0.00    0.00
 2023 140    31  497.04    0.00    0.00   0.02   0.00   0.00   0.00    0.00   0.10   0.00   0.00   0.00   0.37   0.03   0.00   0.00    0.00      0.00        0.00    0.00   -0.03    0.00    0.00
 2023 141    32  496.54    0.00    0.00   0.00   0.00   0.00   0.00    0.00   0.02   0.00   0.00   0.00   0.46   0.03   0.00   0.00   -0.00      0.00        0.00    0.00   -0.03    0.00    0.00
 2023 142    33  496.01    0.00    0.00   0.00   0.00   0.00   0.00    0.00   0.00   0.00   0.00   0.00   0.49   0.04   0.00   0.00    0.00      0.00        0.00    0.00   -0.04    0.00    0.00
 2023 143    34  495.47    0.00    0.00   0.00   0.00   0.00   0.00    0.00   0.00   0.00   0.00   0.00   0.48   0.06   0.00   0.00    0.00      0.00        0.00   -0.00   -0.06    0.00    0.00
 2023 144    35  494.87    0.00    0.00   0.00   0.00   0.00   0.00    0.00   0.00   0.00   0.00   0.00   0.51   0.09   0.00   0.00   -0.00      0.00        0.00   -0.00   -0.09    0.00    0.00
 2023 145    36  494.59    0.00    0.00   3.50   0.00   3.80   0.00    0.00   0.00   0.00   0.00   0.00   0.47   0.12   0.00   0.00    0.00      0.00        0.30    0.00   -0.12    0.00    0.00
 2023 146    37  515.99    0.00    0.00   2.19   0.00  22.10   0.00    0.00   1.31   0.65   0.00   0.00   0.00   0.05   0.00   0.00    0.00      0.00       21.45    0.00   -0.05    0.00    0.00
 2023 147    38  515.08    0.00    0.00   1.85   0.00   1.50   0.00    0.00   1.77   0.79   0.00   0.00   0.00   0.19   0.00   0.00   -0.00      0.00       -0.72    0.00   -0.19    0.00    0.00
 2023 148    39  541.82    0.00    0.00   3.58   0.00  31.50   0.00    0.00   1.49   1.33   0.00   0.00   0.00   0.20   0.00   0.00    0.00      0.00       26.95    0.00   -0.20    0.00    0.00
 2023 149    40  541.12    0.00    0.00   2.10   0.00   3.30   0.00    0.00   2.89   2.32   0.00   0.00   0.00   0.28   0.00   0.00    0.00      0.00       -0.43    0.00   -0.28    0.00    0.00
 2023 150    41  512.45    0.00    0.00   0.40   0.00   0.00   0.00    0.00   1.70  28.31   0.00   0.00   0.00   0.36   0.00   0.00   -0.00      0.00      -28.31    0.00   -0.36    0.00    0.00
 2023 151    42  500.68    0.00    0.00   0.08   0.00   0.00   0.00    0.00   0.33  11.11   0.00   0.00   0.23   0.43   0.00   0.00   -0.00      0.00      -11.11    0.00   -0.43    0.00    0.00
 2023 152    43  497.12    0.00    0.00   0.01   0.00   0.00   0.00    0.00   0.06   2.93   0.00   0.00   0.29   0.32   0.00   0.00    0.00      0.00       -2.93    0.00   -0.32    0.00    0.00
 2023 153    44  496.43    0.00    0.00   0.00   0.00   0.00   0.00    0.00   0.01   0.00   0.00   0.00   0.33   0.36   0.00   0.00    0.00      0.00        0.00   -0.00   -0.36    0.00    0.00
 2023 154    45  518.44    0.00    0.00   3.50   0.00  26.70   0.00    0.00   0.00   0.52   0.00   0.00   0.31   0.36   0.00   0.00    0.00      0.00       22.68    0.00   -0.36    0.00    0.00
 2023 155    46  503.84    0.00    0.00   0.67   0.00   0.00   0.00    0.00   2.83  13.96   0.00   0.00   0.00   0.64   0.00   0.00    0.00      0.00      -13.96    0.00   -0.64    0.00    0.00
 2023 156    47  503.74    0.00    0.00   3.53   0.00   4.60   0.00    0.00   0.54   0.59   0.00   0.00   0.00   0.71   0.00   0.00   -0.00      0.00        0.61    0.00   -0.71    0.00    0.00
 2023 157    48  498.48    0.00    0.00   0.68   0.00   0.00   0.00    0.00   2.85   4.50   0.00   0.00   0.00   0.76   0.00   0.00    0.00      0.00       -4.50    0.00   -0.76    0.00    0.00
 2023 158    49  496.77    0.00    0.00   0.13   0.00   0.00   0.00    0.00   0.55   0.88   0.00   0.00   0.00   0.83   0.00   0.00    0.00      0.00       -0.88    0.00   -0.83    0.00    0.00
 2023 159    50  495.34    0.00    0.00   0.03   0.00   0.00   0.00    0.00   0.11   0.00   0.00   0.00   0.43   1.00   0.00   0.00    0.00      0.00        0.00   -0.00   -1.00    0.00    0.00
 2023 160    51  494.57    0.00    0.00   3.50   0.00   4.10   0.00    0.00   0.02   0.00   0.00   0.00   0.41   0.96   0.00   0.00    0.00      0.00        0.60    0.00   -0.96    0.00    0.00
 2023 161    52  493.47    0.00    0.00   0.67   0.00   0.00   0.00    0.00   2.83   0.00   0.00   0.00   0.00   1.10   0.00   0.00   -0.00      0.00        0.00   -0.00   -1.10    0.00    0.00
 2023 162    53  492.37    0.00    0.00   0.13   0.00   0.00   0.00    0.00   0.54   0.00   0.00   0.00   0.00   1.10   0.00   0.00   -0.00      0.00        0.00    0.00   -1.10    0.00    0.00
 2023 163    54  490.94    0.00    0.00   0.02   0.00   0.00   0.00    0.00   0.10   0.00   0.00   0.00   0.26   1.18   0.00   0.00   -0.00      0.00        0.00   -0.00   -1.18    0.00    0.00
 2023 164    55  489.12    0.00    0.00   0.00   0.00   0.00   0.00    0.00   0.02   0.00   0.00   0.00   0.39   1.43   0.00   0.00   -0.00      0.00        0.00   -0.00   -1.43    0.00    0.00
 2023 165    56  487.26    0.00    0.00   0.00   0.00   0.00   0.00    0.00   0.00   0.00   0.00   0.00   0.39   1.47   0.00   0.00    0.00      0.00        0.00   -0.00   -1.47    0.00    0.00
 2023 166    57  485.26    0.00    0.00   0.29   0.00   0.30   0.00    0.00   0.00   0.00   0.00   0.00   0.39   1.63   0.00   0.00    0.00      0.00        0.01    0.00   -1.63    0.00    0.00
 2023 167    58  483.59    0.00    0.00   0.05   0.00   0.00   0.00    0.00   0.23   0.00   0.00   0.00   0.09   1.58   0.00   0.00   -0.00      0.00        0.00    0.00   -1.58    0.00    0.00
 2023 168    59  481.56    0.00    0.00   0.49   0.00   0.50   0.00    0.00   0.04   0.00   0.00   0.00   0.28   1.78   0.00   0.00   -0.00      0.00        0.02   -0.00   -1.78    0.00    0.00
 2023 169    60  479.35    0.00    0.00   0.09   0.00   0.00   0.00    0.00   0.39   0.00   0.00   0.00   0.00   2.21   0.00   0.00   -0.00      0.00        0.00   -0.00   -2.21    0.00    0.00
 2023 170    61  476.45    0.00    0.00   0.02   0.00   0.00   0.00    0.00   0.08   0.00   0.00   0.00   0.32   2.58   0.00   0.00    0.00      0.00        0.00   -0.00   -2.58    0.00    0.00
 2023 171    62  474.84    0.00    0.00   0.29   0.00   0.30   0.00    0.00   0.01   0.00   0.00   0.00   0.17   1.46   0.00   0.00    0.00      0.00        0.01    0.00   -1.46    0.00    0.00
 2023 172    63  472.67    0.00    0.00   2.43   0.00   2.50   0.00    0.00   0.23   0.00   0.00   0.00   0.01   2.28   0.00   0.00    0.00      0.00        0.12   -0.00   -2.28    0.00    0.00
 2023 173    64  493.13    0.00    0.00   2.10   0.00  23.90   0.00    0.00   1.64   0.00   0.00   0.00   0.00   2.14   0.00   0.00    0.00      0.00       22.60   -0.00   -2.14    0.00    0.00
 2023 174    65  495.29    0.00    0.00   3.44   0.00   7.90   0.00    0.00   1.69   0.00   0.00   0.00   0.00   2.70   0.00   0.00    0.00      0.00        4.86   -0.00   -2.70    0.00    0.00
 2023 175    66  491.95    0.00    0.00   2.42   0.00   1.30   0.00    0.00   2.26   0.00   0.00   0.00   0.00   3.40   0.00   0.00   -0.00      0.00        0.06    0.00   -3.40    0.00    0.00
 2023 176    67  488.55    0.00    0.00   0.47   0.00   0.00   0.00    0.00   1.96   0.00   0.00   0.00   0.00   3.40   0.00   0.00   -0.00      0.00        0.00    0.00   -3.40    0.00    0.00
 2023 177    68  485.16    0.00    0.00   0.09   0.00   0.00   0.00    0.00   0.38   0.00   0.00   0.00   0.00   3.39   0.00   0.00   -0.00      0.00        0.00    0.00   -3.39    0.00    0.00
 2023 178    69  481.79    0.00    0.00   0.02   0.00   0.00   0.00    0.00   0.07   0.00   0.00   0.00   0.14   3.23   0.00   0.00    0.00      0.00        0.00    0.00   -3.23    0.00    0.00
 2023 179    70  477.48    0.00    0.00   0.00   0.00   0.00   0.00    0.00   0.01   0.00   0.00   0.00   0.20   4.11   0.00   0.00   -0.00      0.00        0.00    0.00   -4.11    0.00    0.00
 2023 180    71  482.14    0.00    0.00   3.50   6.70   5.80   0.00    0.00   0.00   0.00   0.00   0.00   0.20   4.14   0.00   0.00    0.00      0.00        9.00   -0.00   -4.14    0.00    0.00
 2023 181    72  492.25    0.00    0.00   2.79   0.00  12.40   0.00    0.00   0.71   0.00   0.00   0.00   0.00   2.28   0.00   0.00    0.00      0.00       12.40    0.00   -2.28    0.00    0.00
 2023 182    73  489.10    0.00    0.00   2.51   0.00   0.80   0.00    0.00   1.04   0.00   0.00   0.00   0.00   3.19   0.00   0.00    0.00      0.00        0.04   -0.00   -3.19    0.00    0.00
 2023 183    74  484.91    0.00    0.00   1.04   0.00   0.00   0.00    0.00   1.47   0.00   0.00   0.00   0.00   4.19   0.00   0.00    0.00      0.00        0.00    0.00   -4.19    0.00    0.00
 2023 184    75  480.27    0.00    0.00   0.20   0.00   0.00   0.00    0.00   0.84   0.00   0.00   0.00   0.00   4.64   0.00   0.00    0.00      0.00        0.00    0.00   -4.64    0.00    0.00
 2023 185    76  477.77    0.00    0.00   3.51   0.00   4.80   0.00    0.00   0.16   0.00   0.00   0.00   0.00   3.83   0.00   0.00    0.00      0.00        1.33   -0.00   -3.83    0.00    0.00
 2023 186    77  476.34    0.00    0.00   3.44   0.00   0.30   0.00    0.00   0.22   0.00   0.00   0.00   0.00   1.58   0.00   0.00    0.00      0.00        0.15   -0.00   -1.58    0.00    0.00
 2023 187    78  487.47    0.00    0.00   3.41   0.00  13.20   0.00    0.00   0.31   0.00   0.00   0.00   0.00   1.79   0.00   0.00    0.00      0.00       12.92   -0.00   -1.79    0.00    0.00
 2023 188    79  492.05    0.00    0.00   2.96   0.00   9.10   0.00    0.00   0.85   0.00   0.00   0.00   0.00   4.11   0.00   0.00    0.00      0.00        8.70    0.00   -4.11    0.00    0.00
 2023 189    80  504.96    0.00    0.00   3.35  15.20   0.80   0.00    0.00   0.37   0.00   0.00   0.00   0.00   2.33   0.00   0.00   -0.00      0.00       15.24   -0.00   -2.33    0.00    0.00
 2023 190    81  497.22    0.00    0.00   2.38   0.00   0.00   0.00    0.00   0.97   3.32   0.00   0.00   0.00   4.41   0.00   0.00   -0.00      0.00       -3.32   -0.00   -4.41    0.00    0.00
 2023 191    82  511.71    0.00    0.00   3.43  13.00   8.40   0.00    0.00   1.04   0.00   0.00   0.00   0.00   4.83   0.00   0.00    0.00      0.00       19.31   -0.00   -4.83    0.00    0.00
 2023 192    83  497.75    0.00    0.00   2.52   0.00   0.00   0.00    0.00   0.91   9.48   0.00   0.00   0.00   4.47   0.00   0.00   -0.00      0.00       -9.48   -0.00   -4.47    0.00    0.00
 2023 193    84  491.75    0.00    0.00   1.67   0.00   0.00   0.00    0.00   0.85   1.07   0.00   0.00   0.00   4.93   0.00   0.00   -0.00      0.00       -1.07    0.00   -4.93    0.00    0.00
 2023 194    85  516.16    0.00    0.00   3.71  13.00  17.50   0.00    0.00   0.65   0.00   0.00   0.00   0.00   3.41   0.00   0.00   -0.00      0.00       27.82   -0.00   -3.41    0.00    0.00
 2023 195    86  523.67    0.00    0.00   3.54   0.00  12.20   0.00    0.00   0.61   0.70   0.00   0.00   0.00   3.54   0.00   0.00   -0.00      0.00       11.06   -0.00   -3.54    0.00    0.00
 2023 196    87  502.36    0.00    0.00   2.75   0.00   0.00   0.00    0.00   0.79  17.22   0.00   0.00   0.00   4.09   0.00   0.00    0.00      0.00      -17.22    0.00   -4.09    0.00    0.00
 2023 197    88  498.26    0.00    0.00   2.28   0.00   0.30   0.00    0.00   0.75   0.00   0.00   0.00   0.00   4.11   0.00   0.00    0.00      0.00        0.01    0.00   -4.11    0.00    0.00
 2023 198    89  492.43    0.00    0.00   1.61   0.00   0.00   0.00    0.00   0.67   1.18   0.00   0.00   0.00   4.65   0.00   0.00    0.00      0.00       -1.18    0.00   -4.65    0.00    0.00
 2023 199    90  488.99    0.00    0.00   1.04   0.00   0.00   0.00    0.00   0.57   0.00   0.00   0.00   0.00   3.43   0.00   0.00    0.00      0.00        0.00    0.00   -3.43    0.00    0.00
 2023 200    91  486.69    0.00    0.00   0.76   0.00   0.00   0.00    0.00   0.28   0.00   0.00   0.00   0.00   2.30   0.00   0.00   -0.00      0.00        0.00   -0.00   -2.30    0.00    0.00
 2023 201    92  494.45    0.00    0.00   3.48   8.00   5.10   0.00    0.00   0.31   0.00   0.00   0.00   0.00   2.31   0.00   0.00   -0.00      0.00       10.07   -0.00   -2.31    0.00    0.00
 2023 202    93  490.14    0.00    0.00   2.93   0.00   0.30   0.00    0.00   0.83   0.00   0.00   0.00   0.00   4.33   0.00   0.00   -0.00      0.00        0.01    0.00   -4.33    0.00    0.00
 2023 203    94  492.76    0.00    0.00   3.37   0.00   8.40   0.00    0.00   0.96   0.00   0.00   0.00   0.00   4.39   0.00   0.00   -0.00      0.00        7.00    0.00   -4.39    0.00    0.00
 2023 204    95  488.30    0.00    0.00   3.13   0.00   0.80   0.00    0.00   1.00   0.00   0.00   0.00   0.00   4.50   0.00   0.00   -0.00      0.00        0.04    0.00   -4.50    0.00    0.00
 2023 205    96  483.81    0.00    0.00   2.15   0.00   0.00   0.00    0.00   0.98   0.00   0.00   0.00   0.00   4.49   0.00   0.00    0.00      0.00        0.00    0.00   -4.49    0.00    0.00
 2023 206    97  492.28    0.00    0.00   1.23  13.10   0.00   0.00    0.00   0.92   0.00   0.00   0.00   0.00   4.63   0.00   0.00    0.00      0.00       13.10    0.00   -4.63    0.00    0.00
 2023 207    98  488.13    0.00    0.00   0.30   0.00   0.00   0.00    0.00   0.94   0.00   0.00   0.00   0.00   4.15   0.00   0.00   -0.00      0.00        0.00    0.00   -4.15    0.00    0.00
 2023 208    99  483.57    0.00    0.00   0.06   0.00   0.00   0.00    0.00   0.24   0.00   0.00   0.00   0.00   4.56   0.00   0.00   -0.00      0.00        0.00   -0.00   -4.56    0.00    0.00
 2023 209   100  479.33    0.00    0.00   0.01   0.00   0.00   0.00    0.00   0.05   0.00   0.00   0.00   0.07   4.17   0.00   0.00   -0.00      0.00        0.00   -0.00   -4.17    0.00    0.00
 2023 210   101  487.89    0.00    0.00   0.76  13.10   0.80   0.00    0.00   0.01   0.00   0.00   0.00   0.11   4.47   0.00   0.00    0.00      0.00       13.14    0.00   -4.47    0.00    0.00
 2023 211   102  483.51    0.00    0.00   0.15   0.00   0.00   0.00    0.00   0.62   0.00   0.00   0.00   0.00   4.39   0.00   0.00    0.00      0.00        0.00    0.00   -4.39    0.00    0.00
 2023 212   103  498.39    0.00    0.00   3.16  19.10   3.30   0.00    0.00   0.12   0.00   0.00   0.00   0.00   4.38   0.00   0.00   -0.00      0.00       19.26    0.00   -4.38    0.00    0.00
 2023 213   104  494.17    0.00    0.00   2.75   0.00   0.30   0.00    0.00   0.70   0.00   0.00   0.00   0.00   4.23   0.00   0.00   -0.00      0.00        0.01    0.00   -4.23    0.00    0.00
 2023 214   105  499.95    0.00    0.00   3.43   7.00   4.30   0.00    0.00   0.77   0.00   0.00   0.00   0.00   4.08   0.00   0.00    0.00      0.00        9.86   -0.00   -4.08    0.00    0.00
 2023 215   106  507.96    0.00    0.00   3.70   0.00  12.40   0.00    0.00   0.57   0.00   0.00   0.00   0.00   3.54   0.00   0.00   -0.00      0.00       11.56   -0.00   -3.54    0.00    0.00
 2023 216   107  524.10    0.00    0.00   3.29   0.00  20.60   0.00    0.00   0.78   0.00   0.00   0.00   0.00   4.08   0.00   0.00    0.00      0.00       20.22    0.00   -4.08    0.00    0.00
 2023 217   108  503.26    0.00    0.00   2.48   0.00   0.00   0.00    0.00   0.81  16.73   0.00   0.00   0.00   4.12   0.00   0.00    0.00      0.00      -16.73    0.00   -4.12    0.00    0.00
 2023 218   109  495.42    0.00    0.00   1.88   0.00   0.00   0.00    0.00   0.61   4.51   0.00   0.00   0.00   3.33   0.00   0.00    0.00      0.00       -4.51   -0.00   -3.33    0.00    0.00
 2023 219   110  510.12    0.00    0.00   3.75   0.00  19.10   0.00    0.00   0.36   0.00   0.00   0.00   0.00   2.17   0.00   0.00    0.00      0.00       16.87    0.00   -2.17    0.00    0.00
 2023 220   111  507.14    0.00    0.00   3.25   0.00   0.30   0.00    0.00   0.61   0.00   0.00   0.00   0.00   3.17   0.00   0.00    0.00      0.00        0.19   -0.00   -3.17    0.00    0.00
 2023 221   112  508.96    0.00    0.00   3.40   5.40   1.80   0.00    0.00   0.71   0.69   0.00   0.00   0.00   3.82   0.00   0.00   -0.00      0.00        5.64    0.00   -3.82    0.00    0.00
 2023 222   113  496.81    0.00    0.00   2.59   0.00   0.00   0.00    0.00   0.81   8.35   0.00   0.00   0.00   3.80   0.00   0.00   -0.00      0.00       -8.35    0.00   -3.80    0.00    0.00
 2023 223   114  492.60    0.00    0.00   1.71   0.00   0.00   0.00    0.00   0.88   0.22   0.00   0.00   0.00   3.99   0.00   0.00   -0.00      0.00       -0.22    0.00   -3.99    0.00    0.00
 2023 224   115  489.35    0.00    0.00   1.12   0.00   0.00   0.00    0.00   0.59   0.00   0.00   0.00   0.00   3.26   0.00   0.00    0.00      0.00        0.00   -0.00   -3.26    0.00    0.00
 2023 225   116  486.75    0.00    0.00   0.67   0.00   0.00   0.00    0.00   0.45   0.00   0.00   0.00   0.00   2.59   0.00   0.00    0.00      0.00        0.00   -0.00   -2.59    0.00    0.00
 2023 226   117  483.24    0.00    0.00   0.13   0.00   0.00   0.00    0.00   0.54   0.00   0.00   0.00   0.00   3.52   0.00   0.00   -0.00      0.00        0.00   -0.00   -3.52    0.00    0.00
 2023 227   118  479.73    0.00    0.00   0.02   0.00   0.00   0.00    0.00   0.10   0.00   0.00   0.00   0.00   3.51   0.00   0.00    0.00      0.00        0.00    0.00   -3.51    0.00    0.00
 2023 228   119  475.82    0.00    0.00   0.00   0.00   0.00   0.00    0.00   0.02   0.00   0.00   0.00   0.09   3.81   0.00   0.00   -0.00      0.00        0.00    0.00   -3.81    0.00    0.00
 2023 229   120  497.62    0.00    0.00   0.00  25.40   0.00   0.00    0.00   0.00   0.00   0.00   0.00   0.09   3.51   0.00   0.00   -0.00      0.00       25.40    0.00   -3.51    0.00    0.00
 2023 230   121  493.81    0.00    0.00   0.00   0.00   0.00   0.00    0.00   0.00   0.00   0.00   0.00   0.11   3.70   0.00   0.00    0.00      0.00        0.00   -0.00   -3.70    0.00    0.00
 2023 231   122  489.70    0.00    0.00   0.00   0.00   0.00   0.00    0.00   0.00   0.00   0.00   0.00   0.11   4.00   0.00   0.00    0.00      0.00        0.00    0.00   -4.00    0.00    0.00
 2023 232   123  485.99    0.00    0.00   0.00   0.00   0.00   0.00    0.00   0.00   0.00   0.00   0.00   0.09   3.62   0.00   0.00    0.00      0.00        0.00    0.00   -3.62    0.00    0.00
 2023 233   124  507.33    0.00    0.00   0.00  25.40   0.00   0.00    0.00   0.00   0.00   0.00   0.00   0.12   3.94   0.00   0.00   -0.00      0.00       25.40    0.00   -3.94    0.00    0.00
 2023 234   125  498.35    0.00    0.00   0.00   0.00   0.00   0.00    0.00   0.00   5.10   0.00   0.00   0.12   3.75   0.00   0.00   -0.00      0.00       -5.10   -0.00   -3.75    0.00    0.00
 2023 235   126  493.53    0.00    0.00   0.00   0.00   0.00   0.00    0.00   0.00   1.24   0.00   0.00   0.11   3.47   0.00   0.00    0.00      0.00       -1.24   -0.00   -3.47    0.00    0.00
 2023 236   127  489.96    0.00    0.00   0.00   0.00   0.00   0.00    0.00   0.00   0.00   0.00   0.00   0.11   3.46   0.00   0.00    0.00      0.00        0.00    0.00   -3.46    0.00    0.00
 2023 237   128  487.12    0.00    0.00   0.00   0.00   0.00   0.00    0.00   0.00   0.00   0.00   0.00   0.08   2.76   0.00   0.00    0.00      0.00        0.00    0.00   -2.76    0.00    0.00
 2023 238   129  483.92    0.00    0.00   0.00   0.00   0.00   0.00    0.00   0.00   0.00   0.00   0.00   0.10   3.09   0.00   0.00    0.00      0.00        0.00   -0.00   -3.09    0.00    0.00
 2023 239   130  480.80    0.00    0.00   0.00   0.00   0.00   0.00    0.00   0.00   0.00   0.00   0.00   0.11   3.02   0.00   0.00   -0.00      0.00        0.00    0.00   -3.02    0.00    0.00
 2023 240   131  478.04    0.00    0.00   0.00   0.00   0.00   0.00    0.00   0.00   0.00   0.00   0.00   0.09   2.68   0.00   0.00    0.00      0.00        0.00   -0.00   -2.68    0.00    0.00
 2023 241   132  500.48    0.00    0.00   0.00  25.40   0.00   0.00    0.00   0.00   0.00   0.00   0.00   0.11   2.85   0.00   0.00   -0.00      0.00       25.40   -0.00   -2.85    0.00    0.00
 2023 242   133  497.45    0.00    0.00   0.00   0.00   0.00   0.00    0.00   0.00   0.00   0.00   0.00   0.12   2.92   0.00   0.00    0.00      0.00       -0.00    0.00   -2.92    0.00    0.00
 2023 243   134  519.69    0.00    0.00   0.00  25.40   0.00   0.00    0.00   0.00   0.00   0.00   0.00   0.12   3.03   0.00   0.00   -0.00      0.00       25.40   -0.00   -3.03    0.00    0.00
 2023 244   135  501.74    0.00    0.00   0.00   0.00   0.00   0.00    0.00   0.00  14.61   0.00   0.00   0.14   3.20   0.00   0.00    0.00      0.00      -14.61   -0.00   -3.20    0.00    0.00
 2023 245   136  495.14    0.00    0.00   0.00   0.00   0.00   0.00    0.00   0.00   3.56   0.00   0.00   0.13   2.91   0.00   0.00    0.00      0.00       -3.56    0.00   -2.91    0.00    0.00
 2023 246   137  492.35    0.00    0.00   0.00   0.00   0.00   0.00    0.00   0.00   0.00   0.00   0.00   0.12   2.66   0.00   0.00    0.00      0.00        0.00   -0.00   -2.66    0.00    0.00
 2023 247   138  489.51    0.00    0.00   0.00   0.00   0.00   0.00    0.00   0.00   0.00   0.00   0.00   0.13   2.70   0.00   0.00    0.00      0.00        0.00   -0.00   -2.70    0.00    0.00
 2023 248   139  512.80    0.00    0.00   0.00  25.40   0.00   0.00    0.00   0.00   0.00   0.00   0.00   0.10   2.01   0.00   0.00   -0.00      0.00       25.40   -0.00   -2.01    0.00    0.00
 2023 249   140  500.66    0.00    0.00   0.00   0.00   0.00   0.00    0.00   0.00   9.96   0.00   0.00   0.11   2.07   0.00   0.00    0.00      0.00       -9.96   -0.00   -2.07    0.00    0.00
 2023 250   141  495.16    0.00    0.00   0.00   0.00   0.00   0.00    0.00   0.00   3.17   0.00   0.00   0.13   2.21   0.00   0.00    0.00      0.00       -3.17    0.00   -2.21    0.00    0.00
 2023 251   142  492.87    0.00    0.00   0.00   0.00   0.00   0.00    0.00   0.00   0.00   0.00   0.00   0.13   2.16   0.00   0.00    0.00      0.00       -0.00   -0.00   -2.16    0.00    0.00
 2023 252   143  490.65    0.00    0.00   0.00   0.00   0.00   0.00    0.00   0.00   0.00   0.00   0.00   0.13   2.09   0.00   0.00    0.00      0.00        0.00    0.00   -2.09    0.00    0.00
 2023 253   144  513.04    0.00    0.00   3.50   0.00  26.90   0.00    0.00   0.00   0.00   0.00   0.00   0.05   0.96   0.00   0.00    0.00      0.00       23.40    0.00   -0.96    0.00    0.00
 2023 254   145  501.23    0.00    0.00   2.73   0.00   0.00   0.00    0.00   0.77  10.29   0.00   0.00   0.00   1.52   0.00   0.00    0.00      0.00      -10.29   -0.00   -1.52    0.00    0.00
 2023 255   146  495.82    0.00    0.00   1.61   0.00   0.00   0.00    0.00   1.12   3.44   0.00   0.00   0.00   1.97   0.00   0.00    0.00      0.01       -3.44   -0.00   -1.97    0.00    0.00
 2023 256   147  493.72    0.00    0.00   0.48   0.00   0.00   0.00    0.00   1.13   0.23   0.00   0.00   0.00   1.87   0.00   0.00   -0.00      0.01       -0.23   -0.00   -1.87    0.00    0.00
 2023 257   148  492.26    0.00    0.00   0.57   0.00   0.50   0.00    0.00   0.39   0.00   0.00   0.00   0.00   1.48   0.00   0.00   -0.00      0.01        0.02   -0.00   -1.48    0.00    0.00
 2023 258   149  500.39    0.00    0.00   3.43   0.00  12.70   0.00    0.00   0.46   0.00   0.00   0.00   0.00   1.26   0.00   0.00    0.00      0.01        9.38    0.00   -1.26    0.00    0.00
 2023 259   150  496.26    0.00    0.00   2.20   0.00   0.00   0.00    0.00   1.23   2.45   0.00   0.00   0.00   1.68   0.00   0.00   -0.00      0.01       -2.45    0.00   -1.68    0.00    0.00
 2023 260   151  494.24    0.00    0.00   1.00   0.00   0.00   0.00    0.00   1.20   0.47   0.00   0.00   0.00   1.54   0.00   0.00   -0.00      0.01       -0.47   -0.00   -1.54    0.00    0.00
 2023 261   152  492.79    0.00    0.00   0.19   0.00   0.00   0.00    0.00   0.81   0.00   0.00   0.00   0.00   1.45   0.00   0.00    0.00      0.01        0.00   -0.00   -1.45    0.00    0.00
 2023 262   153  491.40    0.00    0.00   0.04   0.00   0.00   0.00    0.00   0.15   0.00   0.00   0.00   0.00   1.40   0.00   0.00    0.00      0.01        0.00   -0.00   -1.40    0.00    0.00
 2023 263   154  492.32    0.00    0.00   3.50   0.00   5.80   0.00    0.00   0.03   0.00   0.00   0.00   0.12   1.27   0.00   0.00    0.00      0.01        2.31    0.00   -1.27    0.00    0.00
 2023 264   155  491.12    0.00    0.00   2.51   0.00   0.00   0.00    0.00   0.99   0.00   0.00   0.00   0.00   1.20   0.00   0.00    0.00      0.01       -0.00   -0.00   -1.20    0.00    0.00
 2023 265   156  490.35    0.00    0.00   1.92   0.00   0.00   0.00    0.00   0.60   0.00   0.00   0.00   0.00   0.77   0.00   0.00    0.00      0.01       -0.00   -0.00   -0.77    0.00    0.00
 2023 266   157  489.05    0.00    0.00   2.88   0.00   2.30   0.00    0.00   1.21   0.00   0.00   0.00   0.00   1.41   0.00   0.00   -0.00      0.01        0.12    0.00   -1.41    0.00    0.00
 2023 267   158  487.75    0.00    0.00   1.69   0.00   0.00   0.00    0.00   1.19   0.00   0.00   0.00   0.00   1.30   0.00   0.00    0.00      0.01        0.00    0.00   -1.30    0.00    0.00
 2023 268   159  486.54    0.00    0.00   0.59   0.00   0.00   0.00    0.00   1.11   0.00   0.00   0.00   0.00   1.21   0.00   0.00    0.00      0.01        0.00   -0.00   -1.21    0.00    0.00

!     WATER BALANCE PARAMETERS
!     ========================                 --mm--

!     Soil H20 (start) on Year/day 2023/110    425.29
!     Soil H20 (final) on Year/day 2023/268    486.54
!     Effective Irrigation                     240.60
!     Precipitation                            454.30
!     Water added with new mulch                 0.87
!     Net lateral flow                           0.00
!     Drainage                                 201.88
!     Tiledrain flow                             0.00
!     Runoff                                     0.00
!     Mulch evaporation                         90.62
!     Soil Evaporation                          14.07
!     Transpiration                            328.24
!     Total evapotranspiration                 342.31
!     Total potential evapotranspiration       622.30

!     Initial mulch water content                0.87
!     Final mulch water content                  0.59

!     Final Balance                             0.006

