*RUN-TIME ERRORS OUTPUT FILE



*DSSAT Cropping System Model Ver. 4.8.2.000 -release  APR 04, 2025 02:50:18

*RUN   1        : farm_23                   MZCER048 UNLI2309    1
 MODEL          : MZCER048 - Maize
 EXPERIMENT     : UNLI2309 MZ PIO1366
 DATA PATH      :
 TREATMENT  1   : farm_23                   MZCER048
  
UNLI2309.MZX, Trt    0
 
 Error in Cultivar entry.  Fix cultivar input file.                             
  
File: MZCER048.CUL   Line: 33018   Error key: IPVAR 

Additional information may be available in WARNING.OUT file.
