*Soil Organic Matter daily output file

*DSSAT Cropping System Model Ver. 4.8.2.000 -release  APR 04, 2025 03:05:21

*RUN   1        : farm_23                   MZCER048 UNLI2309    1
 MODEL          : MZCER048 - Maize
 EXPERIMENT     : UNLI2309 MZ PIO1366
 DATA PATH      :
 TREATMENT  1   : farm_23                   MZCER048
  
@YEAR DOY   DAS    OMAC    SCDD    SOCD    SC0D    SCTD   SOMCT    LCTD    ONAC    SNDD    SOND    SN0D    SNTD   SOMNT    LNTD
 2023 109     0       0   12180  128816    2000  126816  126816     0.0    0.00  1218.0 12681.6    0.00 12681.6 12681.6    0.00
 2023 110     1    5000   12180  130815    4000  126815  126815     0.0   55.00  1218.0 12736.5   55.00 12681.5 12681.5    0.00
 2023 111     2    5000   12180  130814    4000  126814  126814     0.0   55.00  1218.0 12736.4   55.00 12681.4 12681.4    0.00
 2023 112     3    5000   12179  130813    4000  126813  126813     0.0   55.00  1217.9 12736.3   55.00 12681.3 12681.3    0.00
 2023 113     4    5000   12179  130813    4000  126813  126813     0.0   55.00  1217.9 12736.3   55.00 12681.3 12681.3    0.00
 2023 114     5    5000   12179  130813    4000  126813  126813     0.0   55.00  1217.9 12736.3   55.00 12681.3 12681.3    0.00
 2023 115     6    5000   12179  130813    4000  126813  126813     0.0   55.00  1217.9 12736.3   55.00 12681.3 12681.3    0.00
 2023 116     7    5000   12179  130813    4000  126813  126813     0.0   55.00  1217.9 12736.3   55.00 12681.3 12681.3    0.00
 2023 117     8    5000   12179  130813    4000  126813  126813     0.0   55.00  1217.9 12736.3   55.00 12681.3 12681.3    0.00
 2023 118     9    5000   12179  130812    4000  126812  126812     0.0   55.00  1217.9 12736.2   55.00 12681.2 12681.2    0.00
 2023 119    10    5000   12179  130811    4000  126811  126811     0.0   55.00  1217.9 12736.1   55.00 12681.1 12681.1    0.00
 2023 120    11    5000   12179  130811    4000  126811  126811     0.0   55.00  1217.9 12736.1   55.00 12681.1 12681.1    0.00
 2023 121    12    5000   12179  130810    4000  126810  126810     0.0   55.00  1217.9 12736.0   55.00 12681.0 12681.0    0.00
 2023 122    13    5000   12179  130809    4000  126809  126809     0.0   55.00  1217.9 12735.9   55.00 12680.9 12680.9    0.00
 2023 123    14    5000   12179  130809    4000  126809  126809     0.0   55.00  1217.9 12735.9   55.00 12680.9 12680.9    0.00
 2023 124    15    5000   12179  130808    4000  126808  126808     0.0   55.00  1217.9 12735.8   55.00 12680.8 12680.8    0.00
 2023 125    16    5000   12178  130807    4000  126807  126807     0.0   55.00  1217.8 12735.7   55.00 12680.7 12680.7    0.00
 2023 126    17    5000   12178  130805    4000  126805  126805     0.0   55.00  1217.8 12735.5   55.00 12680.5 12680.5    0.00
 2023 127    18    5000   12178  130802    4000  126802  126802     0.0   55.00  1217.8 12735.2   55.00 12680.2 12680.2    0.00
 2023 128    19    5000   12177  130799    4000  126799  126799     0.0   55.00  1217.7 12734.9   55.00 12679.9 12679.9    0.00
 2023 129    20    5000   12177  130796    4000  126796  126796     0.0   55.00  1217.7 12734.6   55.00 12679.6 12679.6    0.00
 2023 130    21    5000   12177  130793    4000  126793  126793     0.0   55.00  1217.7 12734.3   55.00 12679.3 12679.3    0.00
 2023 131    22    5000   12176  130791    4000  126791  126791     0.0   55.00  1217.6 12734.1   55.00 12679.1 12679.1    0.00
 2023 132    23    5000   12176  130788    4000  126788  126788     0.0   55.00  1217.6 12733.8   55.00 12678.8 12678.8    0.00
 2023 133    24    5000   12176  130785    4000  126785  126785     0.0   55.00  1217.6 12733.5   55.00 12678.5 12678.5    0.00
 2023 134    25    5000   12175  130782    4000  126782  126782     0.0   55.00  1217.5 12733.2   55.00 12678.2 12678.2    0.00
 2023 135    26    5000   12175  130779    4000  126779  126779     0.0   55.00  1217.5 12732.9   55.00 12677.9 12677.9    0.00
 2023 136    27    5000   12175  130777    4000  126777  126777     0.0   55.00  1217.5 12732.7   55.00 12677.7 12677.7    0.00
 2023 137    28    5000   12174  130775    4000  126775  126775     0.0   55.00  1217.4 12732.5   55.00 12677.5 12677.5    0.00
 2023 138    29    5000   12174  130773    4000  126773  126773     0.0   55.00  1217.4 12732.3   55.00 12677.3 12677.3    0.00
 2023 139    30    5000   12174  130770    4000  126770  126770     0.0   55.00  1217.4 12732.0   55.00 12677.0 12677.0    0.00
 2023 140    31    5000   12173  130768    4000  126768  126768     0.0   55.00  1217.3 12731.8   55.00 12676.8 12676.8    0.00
 2023 141    32    5000   12173  130766    4000  126766  126766     0.0   55.00  1217.3 12731.6   55.00 12676.6 12676.6    0.00
 2023 142    33    5000   12173  130764    4000  126764  126764     0.0   55.00  1217.3 12731.4   55.00 12676.4 12676.4    0.00
 2023 143    34    5000   12172  130761    4000  126761  126761     0.0   55.00  1217.2 12731.1   55.00 12676.1 12676.1    0.00
 2023 144    35    5000   12172  130758    4000  126758  126758     0.0   55.00  1217.2 12730.8   55.00 12675.8 12675.8    0.00
 2023 145    36    5000   12172  130755    4000  126755  126755     0.1   55.00  1217.2 12730.5   55.00 12675.5 12675.5    0.00
 2023 146    37    5000   12171  130752    4000  126752  126752     0.1   55.00  1217.1 12730.2   55.00 12675.2 12675.2    0.00
 2023 147    38    5000   12171  130748    4000  126748  126748     0.2   55.00  1217.1 12729.8   55.00 12674.8 12674.8    0.01
 2023 148    39    5000   12170  130745    4000  126745  126745     0.3   55.00  1217.0 12729.5   55.00 12674.5 12674.5    0.01
 2023 149    40    5000   12170  130741    4000  126741  126741     0.4   55.00  1217.0 12729.1   55.00 12674.1 12674.1    0.01
 2023 150    41    5000   12169  130738    4000  126738  126737     0.5   55.00  1216.9 12728.8   55.00 12673.8 12673.7    0.02
 2023 151    42    5000   12169  130734    4000  126734  126734     0.6   55.00  1216.9 12728.4   55.00 12673.4 12673.4    0.02
 2023 152    43    5000   12169  130731    4000  126731  126730     0.8   55.00  1216.9 12728.0   55.00 12673.0 12673.0    0.02
 2023 153    44    5000   12168  130727    4000  126727  126726     1.0   55.00  1216.8 12727.6   55.00 12672.6 12672.6    0.03
 2023 154    45    5000   12168  130723    4000  126723  126722     1.2   55.00  1216.8 12727.2   55.00 12672.2 12672.2    0.03
 2023 155    46    5000   12167  130719    4000  126719  126718     1.5   55.00  1216.7 12726.8   55.00 12671.8 12671.8    0.04
 2023 156    47    5000   12167  130716    4000  126716  126714     1.7   55.00  1216.7 12726.5   55.00 12671.5 12671.4    0.05
 2023 157    48    5000   12166  130712    4000  126712  126710     2.0   55.00  1216.6 12726.1   55.00 12671.1 12671.0    0.05
 2023 158    49    5000   12166  130709    4000  126709  126706     2.4   55.00  1216.6 12725.7   55.00 12670.7 12670.6    0.06
 2023 159    50    5000   12165  130705    4000  126705  126702     2.9   55.00  1216.5 12725.3   55.00 12670.3 12670.2    0.07
 2023 160    51    5000   12165  130702    4000  126702  126698     3.4   55.00  1216.5 12724.9   55.00 12669.9 12669.8    0.09
 2023 161    52    5000   12164  130698    4000  126698  126694     3.9   55.00  1216.4 12724.5   55.00 12669.5 12669.4    0.11
 2023 162    53    5000   12164  130694    4000  126694  126689     4.6   55.00  1216.4 12724.1   55.00 12669.1 12668.9    0.13
 2023 163    54    5000   12163  130690    4000  126690  126685     5.3   55.00  1216.3 12723.7   55.00 12668.7 12668.5    0.15
 2023 164    55    5000   12163  130687    4000  126687  126681     6.1   55.00  1216.3 12723.3   55.00 12668.3 12668.1    0.17
 2023 165    56    5000   12162  130685    4000  126685  126678     7.0   55.00  1216.2 12723.0   55.00 12668.0 12667.8    0.20
 2023 166    57    5000   12162  130683    4000  126683  126674     8.1   55.00  1216.2 12722.7   55.00 12667.7 12667.4    0.24
 2023 167    58    5000   12161  130680    4000  126680  126671     9.3   55.00  1216.1 12722.4   55.00 12667.4 12667.1    0.27
 2023 168    59    5000   12161  130678    4000  126678  126668    10.5   55.00  1216.1 12722.1   55.00 12667.1 12666.8    0.31
 2023 169    60    5000   12161  130676    4000  126676  126664    11.8   55.00  1216.1 12721.8   55.00 12666.8 12666.4    0.36
 2023 170    61    5000   12160  130674    4000  126674  126660    13.3   55.00  1216.0 12721.4   55.00 12666.4 12666.0    0.40
 2023 171    62    5000   12160  130671    4000  126671  126656    14.9   55.00  1216.0 12721.1   55.00 12666.1 12665.6    0.45
 2023 172    63    5000   12159  130669    4000  126669  126652    16.7   55.00  1215.9 12720.7   55.00 12665.7 12665.2    0.51
 2023 173    64    5000   12159  130666    4000  126666  126648    18.5   55.00  1215.9 12720.3   55.00 12665.3 12664.7    0.56
 2023 174    65    5000   12159  130663    4000  126663  126643    20.1   55.00  1215.8 12719.9   55.00 12664.9 12664.3    0.61
 2023 175    66    5000   12158  130659    4000  126659  126638    21.6   55.00  1215.8 12719.4   55.00 12664.4 12663.8    0.67
 2023 176    67    5000   12158  130656    4000  126656  126633    23.0   55.00  1215.7 12719.0   55.00 12664.0 12663.3    0.72
 2023 177    68    5000   12157  130654    4000  126654  126629    24.8   55.00  1215.7 12718.6   55.00 12663.6 12662.8    0.79
 2023 178    69    5000   12157  130651    4000  126651  126624    26.9   55.00  1215.6 12718.2   55.00 12663.2 12662.4    0.86
 2023 179    70    5000   12156  130649    4000  126649  126620    29.2   55.00  1215.6 12717.9   55.00 12662.9 12661.9    0.94
 2023 180    71    5000   12156  130647    4000  126647  126615    31.6   55.00  1215.5 12717.5   55.00 12662.5 12661.5    1.02
 2023 181    72    5000   12155  130645    4000  126645  126611    34.0   55.00  1215.5 12717.1   55.00 12662.1 12661.0    1.10
 2023 182    73    5000   12155  130642    4000  126642  126606    36.5   55.00  1215.4 12716.7   55.00 12661.7 12660.5    1.18
 2023 183    74    5000   12154  130640    4000  126640  126601    38.8   55.00  1215.4 12716.3   55.00 12661.3 12660.0    1.26
 2023 184    75    5000   12154  130638    4000  126638  126597    41.3   55.00  1215.3 12715.9   55.00 12660.9 12659.5    1.35
 2023 185    76    5000   12153  130636    4000  126636  126592    44.1   55.00  1215.3 12715.5   55.00 12660.5 12659.0    1.44
 2023 186    77    5000   12153  130634    4000  126634  126587    46.9   55.00  1215.2 12715.1   55.00 12660.1 12658.6    1.53
 2023 187    78    5000   12152  130633    4000  126633  126583    49.7   55.00  1215.2 12714.7   55.00 12659.7 12658.1    1.62
 2023 188    79    5000   12152  130631    4000  126631  126579    52.4   55.00  1215.1 12714.4   55.00 12659.4 12657.7    1.70
 2023 189    80    5000   12151  130630    4000  126630  126575    55.0   55.00  1215.1 12714.1   55.00 12659.1 12657.3    1.79
 2023 190    81    5000   12151  130629    4000  126629  126572    57.9   55.00  1215.0 12713.8   55.00 12658.8 12656.9    1.88
 2023 191    82    5000   12151  130629    4000  126629  126568    60.6   55.00  1215.0 12713.5   55.00 12658.5 12656.6    1.96
 2023 192    83    5000   12150  130628    4000  126628  126564    63.4   55.00  1214.9 12713.2   55.00 12658.2 12656.2    2.05
 2023 193    84    5000   12150  130626    4000  126626  126560    65.9   55.00  1214.9 12712.8   55.00 12657.8 12655.7    2.12
 2023 194    85    5000   12150  130624    4000  126624  126556    68.3   55.00  1214.8 12712.4   55.00 12657.4 12655.2    2.20
 2023 195    86    5000   12149  130622    4000  126622  126551    70.9   55.00  1214.8 12712.0   55.00 12657.0 12654.7    2.28
 2023 196    87    5000   12149  130619    4000  126619  126546    73.4   55.00  1214.7 12711.5   55.00 12656.5 12654.2    2.35
 2023 197    88    5000   12148  130617    4000  126617  126541    75.8   55.00  1214.7 12711.1   55.00 12656.1 12653.7    2.43
 2023 198    89    5000   12148  130615    4000  126615  126536    78.1   55.00  1214.6 12710.7   55.00 12655.7 12653.2    2.50
 2023 199    90    5000   12147  130612    4000  126612  126532    80.7   55.00  1214.6 12710.2   55.00 12655.2 12652.7    2.57
 2023 200    91    5000   12147  130611    4000  126611  126527    83.4   55.00  1214.5 12709.8   55.00 12654.8 12652.2    2.64
 2023 201    92    5000   12146  130608    4000  126608  126522    86.1   55.00  1214.5 12709.4   55.00 12654.4 12651.7    2.72
 2023 202    93    5000   12146  130606    4000  126606  126518    88.8   55.00  1214.4 12709.0   55.00 12654.0 12651.2    2.79
 2023 203    94    5000   12146  130605    4000  126605  126513    91.4   55.00  1214.3 12708.6   55.00 12653.6 12650.7    2.87
 2023 204    95    5000   12145  130603    4000  126603  126509    94.3   55.00  1214.3 12708.2   55.00 12653.2 12650.2    2.96
 2023 205    96    5000   12145  130601    4000  126601  126504    97.1   55.00  1214.2 12707.8   55.00 12652.8 12649.7    3.06
 2023 206    97    5000   12144  130599    4000  126599  126499   100.0   55.00  1214.2 12707.3   55.00 12652.3 12649.2    3.15
 2023 207    98    5000   12144  130597    4000  126597  126494   102.6   55.00  1214.1 12706.9   55.00 12651.9 12648.6    3.24
 2023 208    99    5000   12143  130593    4000  126593  126489   104.7   55.00  1214.1 12706.4   55.00 12651.4 12648.0    3.32
 2023 209   100    5000   12143  130590    4000  126590  126483   106.6   55.00  1214.0 12705.8   55.00 12650.8 12647.4    3.40
 2023 210   101    5000   12142  130586    4000  126586  126477   108.6   55.00  1213.9 12705.2   55.00 12650.2 12646.7    3.48
 2023 211   102    5000   12141  130582    4000  126582  126471   110.6   55.00  1213.9 12704.7   55.00 12649.7 12646.1    3.56
 2023 212   103    5000   12141  130578    4000  126578  126465   112.5   55.00  1213.8 12704.1   55.00 12649.1 12645.5    3.64
 2023 213   104    5000   12140  130574    4000  126574  126460   114.7   55.00  1213.7 12703.6   55.00 12648.6 12644.9    3.72
 2023 214   105    5000   12140  130571    4000  126571  126454   116.8   55.00  1213.7 12703.1   55.00 12648.1 12644.3    3.80
 2023 215   106    5000   12139  130568    4000  126568  126449   119.0   55.00  1213.6 12702.5   55.00 12647.5 12643.7    3.88
 2023 216   107    5000   12139  130564    4000  126564  126443   121.2   55.00  1213.5 12702.0   55.00 12647.0 12643.1    3.98
 2023 217   108    5000   12138  130561    4000  126561  126438   123.5   55.00  1213.5 12701.6   55.00 12646.6 12642.5    4.08
 2023 218   109    5000   12138  130558    4000  126558  126433   125.4   55.00  1213.4 12701.1   55.00 12646.1 12641.9    4.17
 2023 219   110    5000   12137  130555    4000  126555  126428   127.4   55.00  1213.4 12700.6   55.00 12645.6 12641.4    4.27
 2023 220   111    5000   12137  130553    4000  126553  126423   129.9   55.00  1213.3 12700.3   55.00 12645.3 12640.9    4.36
 2023 221   112    5000   12136  130552    4000  126552  126419   132.3   55.00  1213.3 12699.9   55.00 12644.9 12640.4    4.46
 2023 222   113    5000   12136  130550    4000  126550  126415   134.8   55.00  1213.2 12699.5   55.00 12644.5 12640.0    4.56
 2023 223   114    5000   12136  130548    4000  126548  126411   137.0   55.00  1213.2 12699.2   55.00 12644.2 12639.5    4.65
 2023 224   115    5000   12135  130546    4000  126546  126407   139.0   55.00  1213.1 12698.8   55.00 12643.8 12639.0    4.74
 2023 225   116    5000   12135  130543    4000  126543  126402   140.9   55.00  1213.1 12698.3   55.00 12643.3 12638.5    4.82
 2023 226   117    5000   12134  130540    4000  126540  126398   142.8   55.00  1213.0 12697.9   55.00 12642.9 12638.0    4.90
 2023 227   118    5000   12134  130538    4000  126538  126393   145.0   55.00  1213.0 12697.5   55.00 12642.5 12637.5    4.99
 2023 228   119    5000   12134  130537    4000  126537  126389   147.4   55.00  1212.9 12697.2   55.00 12642.2 12637.1    5.08
 2023 229   120    5000   12133  130535    4000  126535  126385   149.7   55.00  1212.9 12696.8   55.00 12641.8 12636.6    5.17
 2023 230   121    5000   12133  130533    4000  126533  126381   151.9   55.00  1212.8 12696.4   55.00 12641.4 12636.1    5.25
 2023 231   122    5000   12132  130529    4000  126529  126376   153.4   55.00  1212.8 12696.0   55.00 12641.0 12635.6    5.32
 2023 232   123    5000   12132  130525    4000  126525  126371   154.3   55.00  1212.7 12695.4   55.00 12640.4 12635.1    5.38
 2023 233   124    5000   12131  130521    4000  126521  126366   155.0   55.00  1212.7 12694.9   55.00 12639.9 12634.5    5.43
 2023 234   125    5000   12131  130516    4000  126516  126360   155.8   55.00  1212.6 12694.3   55.00 12639.3 12633.8    5.48
 2023 235   126    5000   12130  130510    4000  126510  126354   155.7   55.00  1212.5 12693.7   55.00 12638.7 12633.1    5.52
 2023 236   127    5000   12130  130503    4000  126503  126348   155.5   55.00  1212.5 12693.0   55.00 12638.0 12632.4    5.54
 2023 237   128    5000   12129  130497    4000  126497  126341   155.4   55.00  1212.4 12692.3   55.00 12637.3 12631.7    5.57
 2023 238   129    5000   12128  130491    4000  126491  126335   155.6   55.00  1212.3 12691.6   55.00 12636.6 12631.0    5.60
 2023 239   130    5000   12128  130485    4000  126485  126329   156.3   55.00  1212.2 12691.0   55.00 12636.0 12630.4    5.64
 2023 240   131    5000   12127  130481    4000  126481  126324   157.5   55.00  1212.2 12690.5   55.00 12635.5 12629.8    5.69
 2023 241   132    5000   12127  130478    4000  126478  126319   159.2   55.00  1212.1 12690.0   55.00 12635.0 12629.2    5.75
 2023 242   133    5000   12126  130475    4000  126475  126314   161.1   55.00  1212.1 12689.6   55.00 12634.6 12628.7    5.82
 2023 243   134    5000   12126  130473    4000  126473  126310   162.7   55.00  1212.0 12689.1   55.00 12634.1 12628.3    5.88
 2023 244   135    5000   12126  130470    4000  126470  126305   164.2   55.00  1212.0 12688.7   55.00 12633.7 12627.7    5.94
 2023 245   136    5000   12125  130465    4000  126465  126300   165.0   55.00  1211.9 12688.1   55.00 12633.1 12627.2    5.98
 2023 246   137    5000   12125  130460    4000  126460  126295   165.4   55.00  1211.9 12687.6   55.00 12632.6 12626.6    6.02
 2023 247   138    5000   12124  130455    4000  126455  126289   165.4   55.00  1211.8 12687.0   55.00 12632.0 12625.9    6.04
 2023 248   139    5000   12123  130449    4000  126449  126283   165.4   55.00  1211.7 12686.3   55.00 12631.3 12625.3    6.06
 2023 249   140    5000   12123  130444    4000  126444  126278   166.2   55.00  1211.7 12685.8   55.00 12630.8 12624.7    6.11
 2023 250   141    5000   12123  130441    4000  126441  126273   167.2   55.00  1211.6 12685.3   55.00 12630.3 12624.2    6.15
 2023 251   142    5000   12122  130437    4000  126437  126269   168.4   55.00  1211.6 12684.9   55.00 12629.9 12623.7    6.20
 2023 252   143    5000   12122  130435    4000  126435  126265   169.9   55.00  1211.5 12684.5   55.00 12629.5 12623.2    6.26
 2023 253   144    5000   12121  130433    4000  126433  126261   171.6   55.00  1211.5 12684.1   55.00 12629.1 12622.8    6.32
 2023 254   145    5000   12121  130430    4000  126430  126257   173.3   55.00  1211.4 12683.7   55.00 12628.7 12622.3    6.39
 2023 255   146    5000   12121  130428    4000  126428  126253   174.8   55.00  1211.4 12683.3   55.00 12628.3 12621.9    6.44
 2023 256   147    5000   12120  130426    4000  126426  126249   176.4   55.00  1211.4 12683.0   55.00 12628.0 12621.5    6.51
 2023 257   148    5000   12120  130424    4000  126424  126246   177.9   55.00  1211.3 12682.6   55.00 12627.6 12621.1    6.57
 2023 258   149    5000   12120  130422    4000  126422  126242   179.7   55.00  1211.3 12682.3   55.00 12627.3 12620.7    6.63
 2023 259   150    5000   12119  130420    4000  126420  126239   181.4   55.00  1211.3 12682.0   55.00 12627.0 12620.3    6.70
 2023 260   151    5000   12119  130418    4000  126418  126235   182.8   55.00  1211.2 12681.6   55.00 12626.6 12619.9    6.75
 2023 261   152    5000   12119  130416    4000  126416  126232   184.1   55.00  1211.2 12681.3   55.00 12626.3 12619.4    6.81
 2023 262   153    5000   12118  130413    4000  126413  126228   185.1   55.00  1211.1 12680.9   55.00 12625.9 12619.0    6.86
 2023 263   154    5000   12118  130410    4000  126410  126224   186.0   55.00  1211.1 12680.5   55.00 12625.5 12618.6    6.91
 2023 264   155    5000   12118  130401    4000  126401  126220   181.7   55.00  1211.1 12679.9   55.00 12624.9 12618.1    6.80
 2023 265   156    5000   12117  130393    4000  126393  126216   177.6   55.00  1211.0 12679.4   55.00 12624.4 12617.7    6.70
 2023 266   157    5000   12117  130385    4000  126385  126212   173.7   55.00  1211.0 12678.8   55.00 12623.8 12617.2    6.60
 2023 267   158    5000   12117  130378    4000  126378  126208   170.2   55.00  1210.9 12678.3   55.00 12623.3 12616.8    6.51
 2023 268   159    5000   12116  130371    4000  126371  126204   167.0   55.00  1210.9 12677.8   55.00 12622.8 12616.4    6.42
