*Soil Carbon Balance

*DSSAT Cropping System Model Ver. 4.8.2.000 -release  APR 04, 2025 03:05:21

*RUN   1        : farm_23                   MZCER048 UNLI2309    1
 MODEL          : MZCER048 - Maize
 EXPERIMENT     : UNLI2309 MZ PIO1366
 DATA PATH      :
 TREATMENT  1   : farm_23                   MZCER048
  

!                                                 Initial               Final
!                                                Year/DOY            Year/DOY
!                                                2023-109            2023-109
! SOIL C BALANCE                                 --------- kg[C]/ha ---------
!  SOIL & SURFACE ORGANIC C
!   Soil Organic C                              126816.20           126204.12
!   Surface Organic C                                0.00                0.00
!   Soil Litter C                                    0.00              166.99
!   Surface Litter C                              2000.00             4000.00
!   Soil methane C stored                            0.00                0.00
!                                                --------            --------
!   Total C in Soil and Surface Layers          128816.20           130371.11
!  ADDITIONS AND REMOVALS:
!   C in Harvest Residues from Previous              0.00
!   C from Organic Applications                   2000.00
!   C in returned senesced material                477.84
!   CO2-C emitted                                  922.92
!   CH4-C emitted                                    0.00
!   CH4-C leached                                    0.00
!   CH4-C plant uptake                               0.00
!                                                --------            --------
! TOTAL C BALANCE                               131294.05           131294.03
!   Balance                                                            -0.009
