*WATER BALANCE OUTPUT FILE

*DSSAT Cropping System Model Ver. 4.8.2.000 -release  JAN 24, 2025 01:19:59

*RUN   1        : silt_loam_13in_irr        MZCER048 UNLI2201    1
 MODEL          : MZCER048 - Maize
 EXPERIMENT     : UNLI2201 MZ IRRIGATED MAIZE PRODUCTION
 DATA PATH      :
 TREATMENT  1   : silt_loam_13in_irr        MZCER048
  
@YEAR DOY   DAS    SWTD    FWTD    SNTD   MWTD   IRRD   PRED  RESAD   LFLOD  MEVAP   DRND   ROFD   FROD   ESAD   EPAD   EFAD   TDFD    WBAL   CUMWBAL        TOTS    TOTU    TOTX    TOTT    TOTL
 2022 120     0  298.30    0.00    0.00   0.00   0.00   0.00   0.00    0.00   0.00   0.00   0.00   0.00   0.00   0.00   0.00   0.00    0.00      0.00        0.00    0.00    0.00    0.00    0.00
 2022 121     1  297.37    0.00    0.00   0.00   0.00   0.00   0.00    0.00   0.00   0.00   0.00   0.00   0.93   0.00   0.00   0.00    0.00      0.00        0.00   -0.93    0.00    0.00    0.00
 2022 122     2  330.38    0.00    0.00   0.00   0.00  36.60   0.00    0.00   0.00   0.00   2.93   0.00   0.66   0.00   0.00   0.00    0.00      0.00       33.67   -0.66    0.00    0.00    0.00
 2022 123     3  314.48    0.00    0.00   0.00   0.00   0.00   0.00    0.00   0.00  12.65   0.00   0.00   3.25   0.00   0.00   0.00    0.00      0.00      -12.65   -3.25    0.00    0.00    0.00
 2022 124     4  319.12    0.00    0.00   0.00   0.00   5.30   0.00    0.00   0.00   0.00   0.00   0.00   0.67   0.00   0.00   0.00    0.00      0.00        5.30   -0.67    0.00    0.00    0.00
 2022 125     5  319.61    0.00    0.00   0.00   0.00   2.80   0.00    0.00   0.00   0.00   0.00   0.00   2.31   0.00   0.00   0.00   -0.00      0.00        2.80   -2.31    0.00    0.00    0.00
 2022 126     6  305.98    0.00    0.00   0.00   0.00   0.00   0.00    0.00   0.00   7.77   0.00   0.00   5.86   0.00   0.00   0.00   -0.00      0.00       -7.77   -5.86    0.00    0.00    0.00
 2022 127     7  312.29    0.00    0.00   0.00   0.00  11.70   0.00    0.00   0.00   0.00   0.00   0.00   5.39   0.00   0.00   0.00    0.00      0.00       11.70   -5.39    0.00    0.00    0.00
 2022 128     8  302.23    0.00    0.00   0.00   0.00   0.00   0.00    0.00   0.00   4.37   0.00   0.00   5.69   0.00   0.00   0.00    0.00      0.00       -4.37   -5.69    0.00    0.00    0.00
 2022 129     9  321.40    0.00    0.00   0.00  25.40   0.00   0.00    0.00   0.00   0.00   0.00   0.00   6.23   0.00   0.00   0.00   -0.00      0.00       25.40   -6.23    0.00    0.00    0.00
 2022 130    10  340.10    0.00    0.00   0.00  25.40   0.00   0.00    0.00   0.00   0.00   0.00   0.00   6.70   0.00   0.00   0.00    0.00      0.00       25.40   -6.70    0.00    0.00    0.00
 2022 131    11  359.21    0.00    0.00   0.00  25.40   0.00   0.00    0.00   0.00   0.00   0.00   0.00   6.29   0.00   0.00   0.00    0.00      0.00       25.40   -6.29    0.00    0.00    0.00
 2022 132    12  379.49    0.00    0.00   0.00  25.40   0.00   0.00    0.00   0.00   0.00   0.00   0.00   5.12   0.00   0.00   0.00    0.00      0.00       25.40   -5.12    0.00    0.00    0.00
 2022 133    13  399.05    0.00    0.00   0.00  25.40   0.00   0.00    0.00   0.00   0.00   0.00   0.00   5.85   0.00   0.00   0.00    0.00      0.00       25.40   -5.85    0.00    0.00    0.00
 2022 134    14  418.87    0.00    0.00   0.00  25.40   0.00   0.00    0.00   0.00   0.00   0.00   0.00   5.58   0.00   0.00   0.00   -0.00      0.00       25.40   -5.58    0.00    0.00    0.00
 2022 135    15  438.74    0.00    0.00   0.00  25.40   1.00   0.00    0.00   0.00   0.00   0.00   0.00   6.53   0.00   0.00   0.00   -0.00      0.00       26.40   -6.53    0.00    0.00    0.00
 2022 136    16  457.54    0.00    0.00   0.00  25.40   0.30   0.00    0.00   0.00   0.00   0.00   0.00   6.89   0.00   0.00   0.00   -0.00      0.00       25.70   -6.89    0.00    0.00    0.00
 2022 137    17  476.10    0.00    0.00   0.00  25.40   0.00   0.00    0.00   0.00   0.50   0.00   0.00   6.35   0.00   0.00   0.00   -0.00      0.00       24.90   -6.35    0.00    0.00    0.00
 2022 138    18  492.60    0.00    0.00   0.00  25.40   0.00   0.00    0.00   0.00   1.61   0.00   0.00   7.27   0.02   0.00   0.00   -0.00      0.00       23.79   -7.27   -0.02    0.00    0.00
 2022 139    19  509.24    0.00    0.00   0.00  25.40   0.00   0.00    0.00   0.00   2.96   0.00   0.00   5.77   0.03   0.00   0.00    0.00      0.00       22.44   -5.77   -0.03    0.00    0.00
 2022 140    20  528.44    0.00    0.00   0.00  25.40   0.00   0.00    0.00   0.00   4.53   0.00   0.00   1.65   0.01   0.00   0.00    0.00      0.00       20.87   -1.65   -0.01    0.00    0.00
 2022 141    21  544.73    0.00    0.00   0.00  25.40   0.00   0.00    0.00   0.00   6.32   0.00   0.00   2.77   0.02   0.00   0.00    0.00      0.00       19.08   -2.77   -0.02    0.00    0.00
 2022 142    22  557.93    0.00    0.00   0.00  25.40   0.00   0.00    0.00   0.00   8.24   0.00   0.00   3.94   0.02   0.00   0.00    0.00      0.00       17.16   -3.94   -0.02    0.00    0.00
 2022 143    23  581.45    0.00    0.00   0.00  25.40  10.70   0.00    0.00   0.00  11.60   0.10   0.00   0.87   0.00   0.00   0.00   -0.00      0.00       24.40   -0.87   -0.00    0.00    0.00
 2022 144    24  590.38    0.00    0.00   0.00  25.40   2.30   0.00    0.00   0.00  16.97   0.00   0.00   1.80   0.00   0.00   0.00    0.00      0.00       10.73   -1.80   -0.00    0.00    0.00
 2022 145    25  587.43    0.00    0.00   0.00  25.40   0.00   0.00    0.00   0.00  22.24   0.00   0.00   6.10   0.01   0.00   0.00   -0.00      0.00        3.16   -6.10   -0.01    0.00    0.00
 2022 146    26  586.40    0.00    0.00   0.00  25.40   0.00   0.00    0.00   0.00  19.29   0.00   0.00   7.12   0.02   0.00   0.00   -0.00      0.00        6.11   -7.12   -0.02    0.00    0.00
 2022 147    27  585.68    0.00    0.00   0.00  25.40   0.00   0.00    0.00   0.00  18.78   0.00   0.00   7.31   0.03   0.00   0.00    0.00      0.00        6.62   -7.31   -0.03    0.00    0.00
 2022 148    28  585.94    0.00    0.00   0.00  25.40   0.00   0.00    0.00   0.00  18.58   0.00   0.00   6.51   0.05   0.00   0.00    0.00      0.00        6.82   -6.51   -0.05    0.00    0.00
 2022 149    29  586.90    0.00    0.00   0.00  25.40   0.00   0.00    0.00   0.00  18.66   0.00   0.00   5.68   0.10   0.00   0.00    0.00      0.00        6.74   -5.68   -0.10    0.00    0.00
 2022 150    30  570.69    0.00    0.00   0.00   0.00   6.10   0.00    0.00   0.00  18.45   0.00   0.00   3.74   0.11   0.00   0.00    0.00      0.00      -12.35   -3.74   -0.11    0.00    0.00
 2022 151    31  458.10    0.00    0.00   0.00   0.00   0.00   0.00    0.00   0.00 108.96   0.00   0.00   3.51   0.13   0.00   0.00   -0.00      0.00     -108.96   -3.51   -0.13    0.00    0.00
 2022 152    32  389.49    0.00    0.00   0.00   0.00   0.00   0.00    0.00   0.00  63.92   0.00   0.00   4.49   0.19   0.00   0.00    0.00      0.00      -63.92   -4.49   -0.19    0.00    0.00
 2022 153    33  347.64    0.00    0.00   0.00   0.00   0.00   0.00    0.00   0.00  36.48   0.00   0.00   5.12   0.26   0.00   0.00    0.00      0.00      -36.48   -5.12   -0.26    0.00    0.00
 2022 154    34  322.01    0.00    0.00   0.00   0.00   0.00   0.00    0.00   0.00  19.83   0.00   0.00   5.48   0.32   0.00   0.00    0.00      0.00      -19.83   -5.48   -0.32    0.00    0.00
 2022 155    35  305.80    0.00    0.00   0.00   0.00   0.00   0.00    0.00   0.00  10.21   0.00   0.00   5.57   0.43   0.00   0.00    0.00      0.00      -10.21   -5.57   -0.43    0.00    0.00
 2022 156    36  296.10    0.00    0.00   0.00   0.00   0.00   0.00    0.00   0.00   4.71   0.00   0.00   4.58   0.40   0.00   0.00   -0.00      0.00       -4.71   -4.58   -0.40    0.00    0.00
 2022 157    37  290.85    0.00    0.00   0.00   0.00   1.00   0.00    0.00   0.00   0.51   0.00   0.00   5.08   0.66   0.00   0.00    0.00      0.00        0.49   -5.08   -0.66    0.00    0.00
 2022 158    38  300.58    0.00    0.00   0.00   0.00  12.20   0.00    0.00   0.00   0.30   0.00   0.00   1.92   0.24   0.00   0.00   -0.00      0.00       11.90   -1.92   -0.24    0.00    0.00
 2022 159    39  293.76    0.00    0.00   0.00   0.00   0.00   0.00    0.00   0.00   0.00   0.00   0.00   5.93   0.89   0.00   0.00   -0.00      0.00        0.00   -5.93   -0.89    0.00    0.00
 2022 160    40  289.54    0.00    0.00   0.00   0.00   0.30   0.00    0.00   0.00   0.00   0.00   0.00   3.91   0.61   0.00   0.00   -0.00      0.00        0.30   -3.91   -0.61    0.00    0.00
 2022 161    41  287.70    0.00    0.00   0.00   0.00   0.00   0.00    0.00   0.00   0.00   0.00   0.00   0.91   0.93   0.00   0.00    0.00      0.00        0.00   -0.91   -0.93    0.00    0.00
 2022 162    42  285.80    0.00    0.00   0.00   0.00   0.00   0.00    0.00   0.00   0.00   0.00   0.00   0.82   1.07   0.00   0.00    0.00      0.00        0.00   -0.82   -1.07    0.00    0.00
 2022 163    43  283.91    0.00    0.00   0.00   0.00   0.00   0.00    0.00   0.00   0.00   0.00   0.00   0.74   1.15   0.00   0.00    0.00      0.00        0.00   -0.74   -1.15    0.00    0.00
 2022 164    44  281.49    0.00    0.00   0.00   0.00   0.00   0.00    0.00   0.00   0.00   0.00   0.00   0.67   1.75   0.00   0.00    0.00      0.00        0.00   -0.67   -1.75    0.00    0.00
 2022 165    45  279.62    0.00    0.00   0.00   0.00   0.00   0.00    0.00   0.00   0.00   0.00   0.00   0.58   1.29   0.00   0.00    0.00      0.00        0.00   -0.58   -1.29    0.00    0.00
 2022 166    46  277.69    0.00    0.00   0.00   0.00   0.00   0.00    0.00   0.00   0.00   0.00   0.00   0.52   1.40   0.00   0.00    0.00      0.00        0.00   -0.52   -1.40    0.00    0.00
 2022 167    47  275.77    0.00    0.00   0.00   0.00   0.00   0.00    0.00   0.00   0.00   0.00   0.00   0.48   1.45   0.00   0.00    0.00      0.00        0.00   -0.48   -1.45    0.00    0.00
 2022 168    48  273.38    0.00    0.00   0.00   0.00   0.00   0.00    0.00   0.00   0.00   0.00   0.00   0.44   1.94   0.00   0.00    0.00      0.00        0.00   -0.44   -1.94    0.00    0.00
 2022 169    49  270.96    0.00    0.00   0.00   0.00   0.00   0.00    0.00   0.00   0.00   0.00   0.00   0.41   2.02   0.00   0.00    0.00      0.00        0.00   -0.41   -2.02    0.00    0.00
 2022 170    50  268.60    0.00    0.00   0.00   0.00   0.00   0.00    0.00   0.00   0.00   0.00   0.00   0.37   1.98   0.00   0.00    0.00      0.00        0.00   -0.37   -1.98    0.00    0.00
 2022 171    51  266.51    0.00    0.00   0.00   0.00   0.00   0.00    0.00   0.00   0.00   0.00   0.00   0.34   1.74   0.00   0.00    0.00      0.00        0.00   -0.34   -1.74    0.00    0.00
 2022 172    52  265.10    0.00    0.00   0.00   0.00   0.00   0.00    0.00   0.00   0.00   0.00   0.00   0.32   1.09   0.00   0.00    0.00      0.00        0.00   -0.32   -1.09    0.00    0.00
 2022 173    53  263.27    0.00    0.00   0.00   0.00   0.00   0.00    0.00   0.00   0.00   0.00   0.00   0.30   1.54   0.00   0.00    0.00      0.00        0.00   -0.30   -1.54    0.00    0.00
 2022 174    54  260.76    0.00    0.00   0.00   0.00   0.00   0.00    0.00   0.00   0.00   0.00   0.00   0.27   2.23   0.00   0.00    0.00      0.00        0.00   -0.27   -2.23    0.00    0.00
 2022 175    55  259.03    0.00    0.00   0.00   0.00   0.30   0.00    0.00   0.00   0.00   0.00   0.00   0.27   1.77   0.00   0.00    0.00      0.00        0.30   -0.27   -1.77    0.00    0.00
 2022 176    56  257.15    0.00    0.00   0.00   0.00   0.00   0.00    0.00   0.00   0.00   0.00   0.00   0.26   1.62   0.00   0.00    0.00      0.00        0.00   -0.26   -1.62    0.00    0.00
 2022 177    57  255.50    0.00    0.00   0.00   0.00   0.00   0.00    0.00   0.00   0.00   0.00   0.00   0.24   1.41   0.00   0.00    0.00      0.00        0.00   -0.24   -1.41    0.00    0.00
 2022 178    58  253.16    0.00    0.00   0.00   0.00   0.00   0.00    0.00   0.00   0.00   0.00   0.00   0.23   2.11   0.00   0.00    0.00      0.00        0.00   -0.23   -2.11    0.00    0.00
 2022 179    59  250.89    0.00    0.00   0.00   0.00   0.00   0.00    0.00   0.00   0.00   0.00   0.00   0.21   2.05   0.00   0.00    0.00      0.00        0.00   -0.21   -2.05    0.00    0.00
 2022 180    60  248.28    0.00    0.00   0.00   0.00   0.00   0.00    0.00   0.00   0.00   0.00   0.00   0.20   2.41   0.00   0.00   -0.00      0.00        0.00   -0.20   -2.41    0.00    0.00
 2022 181    61  246.38    0.00    0.00   0.00   0.00   0.00   0.00    0.00   0.00   0.00   0.00   0.00   0.19   1.72   0.00   0.00    0.00      0.00        0.00   -0.19   -1.72    0.00    0.00
 2022 182    62  244.45    0.00    0.00   0.00   0.00   0.00   0.00    0.00   0.00   0.00   0.00   0.00   0.17   1.76   0.00   0.00    0.00      0.01        0.00   -0.17   -1.76    0.00    0.00
 2022 183    63  264.78    0.00    0.00   0.00   0.00  25.90   0.00    0.00   0.00   0.00   0.00   0.00   3.68   1.88   0.00   0.00   -0.00      0.00       25.90   -3.68   -1.88    0.00    0.00
 2022 184    64  266.05    0.00    0.00   0.00   0.00   8.10   0.00    0.00   0.00   0.00   0.00   0.00   4.52   2.31   0.00   0.00    0.00      0.01        8.10   -4.52   -2.31    0.00    0.00
 2022 185    65  257.95    0.00    0.00   0.00   0.00   0.00   0.00    0.00   0.00   0.00   0.00   0.00   5.31   2.80   0.00   0.00   -0.00      0.01       -0.00   -5.31   -2.80    0.00    0.00
 2022 186    66  278.30    0.00    0.00   0.00   0.00  29.20   0.00    0.00   0.00   0.00   1.37   0.00   4.84   2.64   0.00   0.00   -0.00      0.00       27.83   -4.84   -2.64    0.00    0.00
 2022 187    67  275.90    0.00    0.00   0.00   0.00   1.30   0.00    0.00   0.00   0.00   0.00   0.00   2.36   1.33   0.00   0.00    0.00      0.01        1.30   -2.36   -1.33    0.00    0.00
 2022 188    68  281.69    0.00    0.00   0.00   0.00  11.20   0.00    0.00   0.00   0.00   0.00   0.00   3.45   1.96   0.00   0.00   -0.00      0.00       11.20   -3.45   -1.96    0.00    0.00
 2022 189    69  274.31    0.00    0.00   0.00   0.00   0.00   0.00    0.00   0.00   0.00   0.00   0.00   4.65   2.73   0.00   0.00    0.00      0.01        0.00   -4.65   -2.73    0.00    0.00
 2022 190    70  266.24    0.00    0.00   0.00   0.00   0.00   0.00    0.00   0.00   0.00   0.00   0.00   5.01   3.05   0.00   0.00   -0.00      0.00        0.00   -5.01   -3.05    0.00    0.00
 2022 191    71  259.19    0.00    0.00   0.00   0.00   1.50   0.00    0.00   0.00   0.00   0.00   0.00   5.18   3.38   0.00   0.00   -0.00      0.00        1.50   -5.18   -3.38    0.00    0.00
 2022 192    72  256.01    0.00    0.00   0.00   0.00   0.30   0.00    0.00   0.00   0.00   0.00   0.00   0.88   2.59   0.00   0.00   -0.00      0.00        0.30   -0.88   -2.59    0.00    0.00
 2022 193    73  252.71    0.00    0.00   0.00   0.00   0.00   0.00    0.00   0.00   0.00   0.00   0.00   0.80   2.50   0.00   0.00   -0.00      0.00        0.00   -0.80   -2.50    0.00    0.00
 2022 194    74  249.62    0.00    0.00   0.00   0.00   0.30   0.00    0.00   0.00   0.00   0.00   0.00   0.73   2.66   0.00   0.00    0.00      0.00        0.30   -0.73   -2.66    0.00    0.00
 2022 195    75  245.28    0.00    0.00   0.00   0.00   0.00   0.00    0.00   0.00   0.00   0.00   0.00   0.66   3.68   0.00   0.00   -0.00      0.00        0.00   -0.66   -3.68    0.00    0.00
 2022 196    76  242.03    0.00    0.00   0.00   0.00   0.00   0.00    0.00   0.00   0.00   0.00   0.00   0.57   2.67   0.00   0.00   -0.00      0.00        0.00   -0.57   -2.67    0.00    0.00
 2022 197    77  239.55    0.00    0.00   0.00   0.00   0.00   0.00    0.00   0.00   0.00   0.00   0.00   0.50   1.98   0.00   0.00    0.00      0.00        0.00   -0.50   -1.98    0.00    0.00
 2022 198    78  236.48    0.00    0.00   0.00   0.00   0.00   0.00    0.00   0.00   0.00   0.00   0.00   0.46   2.61   0.00   0.00    0.00      0.00        0.00   -0.46   -2.61    0.00    0.00
 2022 199    79  232.71    0.00    0.00   0.00   0.00   0.00   0.00    0.00   0.00   0.00   0.00   0.00   0.42   3.35   0.00   0.00   -0.00      0.00        0.00   -0.42   -3.35    0.00    0.00
 2022 200    80  229.62    0.00    0.00   0.00   0.00   0.00   0.00    0.00   0.00   0.00   0.00   0.00   0.38   2.71   0.00   0.00   -0.00      0.00        0.00   -0.38   -2.71    0.00    0.00
 2022 201    81  226.74    0.00    0.00   0.00   0.00   0.00   0.00    0.00   0.00   0.00   0.00   0.00   0.35   2.53   0.00   0.00    0.00      0.00        0.00   -0.35   -2.53    0.00    0.00
 2022 202    82  237.09    0.00    0.00   0.00   0.00  17.30   0.00    0.00   0.00   0.00   0.00   0.00   4.19   2.76   0.00   0.00   -0.00      0.00       17.30   -4.19   -2.76    0.00    0.00
 2022 203    83  229.78    0.00    0.00   0.00   0.00   0.00   0.00    0.00   0.00   0.00   0.00   0.00   4.62   2.69   0.00   0.00   -0.00      0.00        0.00   -4.62   -2.69    0.00    0.00
 2022 204    84  223.15    0.00    0.00   0.00   0.00   0.00   0.00    0.00   0.00   0.00   0.00   0.00   4.19   2.43   0.00   0.00   -0.00      0.00        0.00   -4.19   -2.43    0.00    0.00
 2022 205    85  220.30    0.00    0.00   0.00   0.00   0.00   0.00    0.00   0.00   0.00   0.00   0.00   0.80   2.06   0.00   0.00    0.00      0.00        0.00   -0.80   -2.06    0.00    0.00
 2022 206    86  224.29    0.00    0.00   0.00   0.00   5.30   0.00    0.00   0.00   0.00   0.00   0.00   0.89   0.42   0.00   0.00   -0.00      0.00        5.30   -0.89   -0.42    0.00    0.00
 2022 207    87  220.43    0.00    0.00   0.00   0.00   0.00   0.00    0.00   0.00   0.00   0.00   0.00   2.67   1.20   0.00   0.00   -0.00      0.00        0.00   -2.67   -1.20    0.00    0.00
 2022 208    88  240.55    0.00    0.00   0.00   0.00  24.40   0.00    0.00   0.00   0.00   0.18   0.00   2.86   1.23   0.00   0.00    0.00      0.00       24.22   -2.86   -1.23    0.00    0.00
 2022 209    89  236.30    0.00    0.00   0.00   0.00   0.30   0.00    0.00   0.00   0.00   0.00   0.00   3.22   1.33   0.00   0.00   -0.00      0.00        0.30   -3.22   -1.33    0.00    0.00
 2022 210    90  232.47    0.00    0.00   0.00   0.00   0.00   0.00    0.00   0.00   0.00   0.00   0.00   2.75   1.08   0.00   0.00    0.00      0.00       -0.00   -2.75   -1.08    0.00    0.00
 2022 211    91  226.01    0.00    0.00   0.00   0.00   0.00   0.00    0.00   0.00   0.00   0.00   0.00   4.58   1.88   0.00   0.00   -0.00      0.00       -0.00   -4.58   -1.88    0.00    0.00
 2022 212    92  223.62    0.00    0.00   0.00   0.00   0.00   0.00    0.00   0.00   0.00   0.00   0.00   0.84   1.55   0.00   0.00    0.00      0.00        0.00   -0.84   -1.55    0.00    0.00
 2022 213    93  220.87    0.00    0.00   0.00   0.00   0.00   0.00    0.00   0.00   0.00   0.00   0.00   0.75   2.00   0.00   0.00   -0.00      0.00        0.00   -0.75   -2.00    0.00    0.00
 2022 214    94  219.62    0.00    0.00   0.00   0.00   1.50   0.00    0.00   0.00   0.00   0.00   0.00   0.73   2.02   0.00   0.00   -0.00      0.00        1.50   -0.73   -2.02    0.00    0.00
 2022 215    95  217.24    0.00    0.00   0.00   0.00   0.00   0.00    0.00   0.00   0.00   0.00   0.00   0.71   1.67   0.00   0.00    0.00      0.00        0.00   -0.71   -1.67    0.00    0.00
 2022 216    96  215.00    0.00    0.00   0.00   0.00   0.00   0.00    0.00   0.00   0.00   0.00   0.00   0.63   1.61   0.00   0.00    0.00      0.00        0.00   -0.63   -1.61    0.00    0.00
 2022 217    97  212.60    0.00    0.00   0.00   0.00   0.00   0.00    0.00   0.00   0.00   0.00   0.00   0.56   1.83   0.00   0.00    0.00      0.00        0.00   -0.56   -1.83    0.00    0.00
 2022 218    98  210.83    0.00    0.00   0.00   0.00   0.00   0.00    0.00   0.00   0.00   0.00   0.00   0.49   1.27   0.00   0.00    0.00      0.00        0.00   -0.49   -1.27    0.00    0.00
 2022 219    99  210.79    0.00    0.00   0.00   0.00   0.80   0.00    0.00   0.00   0.00   0.00   0.00   0.49   0.35   0.00   0.00    0.00      0.00        0.80   -0.49   -0.35    0.00    0.00
 2022 220   100  208.99    0.00    0.00   0.00   0.00   0.00   0.00    0.00   0.00   0.00   0.00   0.00   0.49   1.32   0.00   0.00   -0.00      0.00        0.00   -0.49   -1.32    0.00    0.00
 2022 221   101  207.15    0.00    0.00   0.00   0.00   0.00   0.00    0.00   0.00   0.00   0.00   0.00   0.44   1.39   0.00   0.00    0.00      0.00        0.00   -0.44   -1.39    0.00    0.00
 2022 222   102  205.30    0.00    0.00   0.00   0.00   0.00   0.00    0.00   0.00   0.00   0.00   0.00   0.41   1.45   0.00   0.00    0.00      0.01        0.00   -0.41   -1.45    0.00    0.00
 2022 223   103  203.59    0.00    0.00   0.00   0.00   0.00   0.00    0.00   0.00   0.00   0.00   0.00   0.37   1.34   0.00   0.00    0.00      0.01        0.00   -0.37   -1.34    0.00    0.00
 2022 224   104  201.80    0.00    0.00   0.00   0.00   0.00   0.00    0.00   0.00   0.00   0.00   0.00   0.34   1.45   0.00   0.00   -0.00      0.01        0.00   -0.34   -1.45    0.00    0.00
 2022 225   105  200.29    0.00    0.00   0.00   0.00   0.00   0.00    0.00   0.00   0.00   0.00   0.00   0.31   1.19   0.00   0.00    0.00      0.01        0.00   -0.31   -1.19    0.00    0.00
 2022 226   106  198.92    0.00    0.00   0.00   0.00   0.00   0.00    0.00   0.00   0.00   0.00   0.00   0.29   1.08   0.00   0.00    0.00      0.01        0.00   -0.29   -1.08    0.00    0.00
 2022 227   107  209.11    0.00    0.00   0.00   0.00  11.70   0.00    0.00   0.00   0.00   0.00   0.00   0.70   0.81   0.00   0.00    0.00      0.01       11.70   -0.70   -0.81    0.00    0.00
 2022 228   108  207.84    0.00    0.00   0.00   0.00   0.30   0.00    0.00   0.00   0.00   0.00   0.00   1.31   0.27   0.00   0.00   -0.00      0.01        0.30   -1.31   -0.27    0.00    0.00
 2022 229   109  204.40    0.00    0.00   0.00   0.00   0.00   0.00    0.00   0.00   0.00   0.00   0.00   2.87   0.57   0.00   0.00   -0.00      0.01       -0.00   -2.87   -0.57    0.00    0.00
 2022 230   110  202.63    0.00    0.00   0.00   0.00   0.00   0.00    0.00   0.00   0.00   0.00   0.00   0.82   0.94   0.00   0.00    0.00      0.01        0.00   -0.82   -0.94    0.00    0.00
 2022 231   111  201.05    0.00    0.00   0.00   0.00   0.00   0.00    0.00   0.00   0.00   0.00   0.00   0.74   0.84   0.00   0.00    0.00      0.01        0.00   -0.74   -0.84    0.00    0.00
 2022 232   112  199.55    0.00    0.00   0.00   0.00   0.00   0.00    0.00   0.00   0.00   0.00   0.00   0.66   0.85   0.00   0.00   -0.00      0.01        0.00   -0.66   -0.85    0.00    0.00
 2022 233   113  198.06    0.00    0.00   0.00   0.00   0.00   0.00    0.00   0.00   0.00   0.00   0.00   0.58   0.91   0.00   0.00    0.00      0.01        0.00   -0.58   -0.91    0.00    0.00
 2022 234   114  196.67    0.00    0.00   0.00   0.00   0.00   0.00    0.00   0.00   0.00   0.00   0.00   0.51   0.88   0.00   0.00   -0.00      0.01        0.00   -0.51   -0.88    0.00    0.00
 2022 235   115  195.35    0.00    0.00   0.00   0.00   0.00   0.00    0.00   0.00   0.00   0.00   0.00   0.45   0.87   0.00   0.00    0.00      0.01        0.00   -0.45   -0.87    0.00    0.00
 2022 236   116  194.20    0.00    0.00   0.00   0.00   0.00   0.00    0.00   0.00   0.00   0.00   0.00   0.40   0.75   0.00   0.00    0.00      0.01        0.00   -0.40   -0.75    0.00    0.00
 2022 237   117  193.05    0.00    0.00   0.00   0.00   0.00   0.00    0.00   0.00   0.00   0.00   0.00   0.37   0.77   0.00   0.00    0.00      0.01        0.00   -0.37   -0.77    0.00    0.00
 2022 238   118  192.25    0.00    0.00   0.00   0.00   0.00   0.00    0.00   0.00   0.00   0.00   0.00   0.34   0.46   0.00   0.00    0.00      0.01        0.00   -0.34   -0.46    0.00    0.00
 2022 239   119  191.15    0.00    0.00   0.00   0.00   0.00   0.00    0.00   0.00   0.00   0.00   0.00   0.32   0.79   0.00   0.00    0.00      0.01        0.00   -0.32   -0.79    0.00    0.00
 2022 240   120  190.05    0.00    0.00   0.00   0.00   0.00   0.00    0.00   0.00   0.00   0.00   0.00   0.29   0.80   0.00   0.00    0.00      0.01        0.00   -0.29   -0.80    0.00    0.00
 2022 241   121  189.08    0.00    0.00   0.00   0.00   0.00   0.00    0.00   0.00   0.00   0.00   0.00   0.27   0.70   0.00   0.00    0.00      0.01        0.00   -0.27   -0.70    0.00    0.00
 2022 242   122  188.12    0.00    0.00   0.00   0.00   0.00   0.00    0.00   0.00   0.00   0.00   0.00   0.25   0.70   0.00   0.00    0.00      0.01        0.00   -0.25   -0.70    0.00    0.00
 2022 243   123  188.79    0.00    0.00   0.00   0.00   1.50   0.00    0.00   0.00   0.00   0.00   0.00   0.30   0.53   0.00   0.00    0.00      0.01        1.50   -0.30   -0.53    0.00    0.00
 2022 244   124  187.77    0.00    0.00   0.00   0.00   0.00   0.00    0.00   0.00   0.00   0.00   0.00   0.34   0.68   0.00   0.00    0.00      0.01        0.00   -0.34   -0.68    0.00    0.00
 2022 245   125  186.82    0.00    0.00   0.00   0.00   0.00   0.00    0.00   0.00   0.00   0.00   0.00   0.32   0.63   0.00   0.00    0.00      0.01        0.00   -0.32   -0.63    0.00    0.00
 2022 246   126  185.92    0.00    0.00   0.00   0.00   0.00   0.00    0.00   0.00   0.00   0.00   0.00   0.29   0.60   0.00   0.00    0.00      0.01        0.00   -0.29   -0.60    0.00    0.00
 2022 247   127  185.05    0.00    0.00   0.00   0.00   0.00   0.00    0.00   0.00   0.00   0.00   0.00   0.27   0.59   0.00   0.00    0.00      0.01        0.00   -0.27   -0.59    0.00    0.00
 2022 248   128  184.20    0.00    0.00   0.00   0.00   0.00   0.00    0.00   0.00   0.00   0.00   0.00   0.25   0.60   0.00   0.00    0.00      0.01        0.00   -0.25   -0.60    0.00    0.00
 2022 249   129  183.30    0.00    0.00   0.00   0.00   0.00   0.00    0.00   0.00   0.00   0.00   0.00   0.24   0.67   0.00   0.00    0.00      0.01        0.00   -0.24   -0.67    0.00    0.00
 2022 250   130  182.53    0.00    0.00   0.00   0.00   0.00   0.00    0.00   0.00   0.00   0.00   0.00   0.22   0.55   0.00   0.00    0.00      0.01        0.00   -0.22   -0.55    0.00    0.00
 2022 251   131  181.67    0.00    0.00   0.00   0.00   0.00   0.00    0.00   0.00   0.00   0.00   0.00   0.20   0.66   0.00   0.00    0.00      0.01        0.00   -0.20   -0.66    0.00    0.00
 2022 252   132  181.28    0.00    0.00   0.00   0.00   0.00   0.00    0.00   0.00   0.00   0.00   0.00   0.19   0.20   0.00   0.00   -0.00      0.01        0.00   -0.19   -0.20    0.00    0.00
 2022 253   133  185.79    0.00    0.00   0.00   0.00   5.10   0.00    0.00   0.00   0.00   0.00   0.00   0.40   0.19   0.00   0.00   -0.00      0.01        5.10   -0.40   -0.19    0.00    0.00
 2022 254   134  184.75    0.00    0.00   0.00   0.00   0.00   0.00    0.00   0.00   0.00   0.00   0.00   0.59   0.44   0.00   0.00   -0.00      0.01        0.00   -0.59   -0.44    0.00    0.00
 2022 255   135  183.78    0.00    0.00   0.00   0.00   0.00   0.00    0.00   0.00   0.00   0.00   0.00   0.53   0.45   0.00   0.00    0.00      0.01        0.00   -0.53   -0.45    0.00    0.00
 2022 256   136  182.91    0.00    0.00   0.00   0.00   0.00   0.00    0.00   0.00   0.00   0.00   0.00   0.47   0.39   0.00   0.00    0.00      0.01        0.00   -0.47   -0.39    0.00    0.00
 2022 257   137  182.15    0.00    0.00   0.00   0.00   0.00   0.00    0.00   0.00   0.00   0.00   0.00   0.42   0.34   0.00   0.00    0.00      0.01        0.00   -0.42   -0.34    0.00    0.00
 2022 258   138  182.15    0.00    0.00   0.00   0.00   0.80   0.00    0.00   0.00   0.00   0.00   0.00   0.42   0.38   0.00   0.00   -0.00      0.01        0.80   -0.42   -0.38    0.00    0.00
 2022 259   139  194.81    0.00    0.00   0.00   0.00  16.50   0.00    0.00   0.00   0.00   0.00   0.00   3.52   0.32   0.00   0.00   -0.00      0.01       16.50   -3.52   -0.32    0.00    0.00
 2022 260   140  190.46    0.00    0.00   0.00   0.00   0.00   0.00    0.00   0.00   0.00   0.00   0.00   3.95   0.41   0.00   0.00    0.00      0.01        0.00   -3.95   -0.41    0.00    0.00
 2022 261   141  186.47    0.00    0.00   0.00   0.00   0.00   0.00    0.00   0.00   0.00   0.00   0.00   3.61   0.38   0.00   0.00    0.00      0.01       -0.00   -3.61   -0.38    0.00    0.00
 2022 262   142  185.28    0.00    0.00   0.00   0.00   0.00   0.00    0.00   0.00   0.00   0.00   0.00   0.83   0.36   0.00   0.00    0.00      0.01        0.00   -0.83   -0.36    0.00    0.00
 2022 263   143  184.23    0.00    0.00   0.00   0.00   0.00   0.00    0.00   0.00   0.00   0.00   0.00   0.75   0.29   0.00   0.00   -0.00      0.01        0.00   -0.75   -0.29    0.00    0.00

!     WATER BALANCE PARAMETERS
!     ========================                 --mm--

!     Soil H20 (start) on Year/day 2022/121    298.30
!     Soil H20 (final) on Year/day 2022/263    184.23
!     Effective Irrigation                     533.40
!     Precipitation                            253.90
!     Water added with new mulch                 0.00
!     Net lateral flow                           0.00
!     Drainage                                 438.46
!     Tiledrain flow                             0.00
!     Runoff                                     4.58
!     Mulch evaporation                          0.00
!     Soil Evaporation                         307.79
!     Transpiration                            150.54
!     Total evapotranspiration                 458.32
!     Total potential evapotranspiration       817.64

!     Initial mulch water content                0.00
!     Final mulch water content                  0.00

!     Final Balance                             0.008

