*SOIL ORGANIC N BALANCE

*DSSAT Cropping System Model Ver. 4.8.2.000 -release  JAN 24, 2025 01:19:59

*RUN   1        : silt_loam_13in_irr        MZCER048 UNLI2201    1
 MODEL          : MZCER048 - Maize
 EXPERIMENT     : UNLI2201 MZ IRRIGATED MAIZE PRODUCTION
 DATA PATH      :
 TREATMENT  1   : silt_loam_13in_irr        MZCER048
  
!                 ----- STATE VARS ------   ---- ADDED TODAY ---- REMOVED     DAILY     CUMUL
@YEAR DOY   DAS      HUMN     FON    RESN   ARESN   ASENN AIMMOBN RMINERP      DBAL      CBAL
 2022 120     0  14871.79   0.000   0.000   0.000   0.000   0.000   0.000     0.000     0.000
 2022 121     1  14871.67   0.000   0.000   0.000   0.000   0.000   0.119    -0.000    -0.000
 2022 122     2  14871.56   0.000   0.000   0.000   0.000   0.000   0.115     0.000     0.000
 2022 123     3  14871.48   0.000   0.000   0.000   0.000   0.000   0.079     0.001     0.001
 2022 124     4  14871.43   0.000   0.000   0.000   0.000   0.000   0.047    -0.000     0.001
 2022 125     5  14871.40   0.000   0.000   0.000   0.000   0.000   0.027    -0.000     0.000
 2022 126     6  14871.38   0.000   0.000   0.000   0.000   0.000   0.026    -0.000     0.000
 2022 127     7  14871.33   0.000   0.000   0.000   0.000   0.000   0.052     0.000     0.000
 2022 128     8  14871.19   0.000   0.000   0.000   0.000   0.000   0.135     0.000     0.000
 2022 129     9  14870.97   0.000   0.000   0.000   0.000   0.000   0.224    -0.001    -0.000
 2022 130    10  14870.67   0.000   0.000   0.000   0.000   0.000   0.291     0.000    -0.000
 2022 131    11  14870.34   0.000   0.000   0.000   0.000   0.000   0.332     0.001     0.000
 2022 132    12  14869.96   0.000   0.000   0.000   0.000   0.000   0.384    -0.001    -0.000
 2022 133    13  14869.55   0.000   0.000   0.000   0.000   0.000   0.410     0.002     0.001
 2022 134    14  14869.16   0.000   0.000   0.000   0.000   0.000   0.392    -0.000     0.001
 2022 135    15  14868.77   0.000   0.000   0.000   0.000   0.000   0.385    -0.001    -0.000
 2022 136    16  14868.39   0.000   0.000   0.000   0.000   0.000   0.386     0.001     0.001
 2022 137    17  14868.03   0.000   0.000   0.000   0.000   0.000   0.357     0.001     0.002
 2022 138    18  14867.67   0.000   0.000   0.000   0.000   0.000   0.359    -0.002     0.000
 2022 139    19  14867.28   0.000   0.000   0.000   0.000   0.000   0.389    -0.000    -0.000
 2022 140    20  14866.86   0.000   0.000   0.000   0.000   0.000   0.420     0.001     0.001
 2022 141    21  14866.49   0.000   0.000   0.000   0.000   0.000   0.375     0.001     0.001
 2022 142    22  14866.19   0.000   0.000   0.000   0.000   0.000   0.298    -0.000     0.001
 2022 143    23  14865.99   0.000   0.000   0.000   0.000   0.000   0.202    -0.000     0.001
 2022 144    24  14865.85   0.000   0.000   0.000   0.000   0.000   0.134     0.001     0.001
 2022 145    25  14865.79   0.000   0.000   0.000   0.000   0.000   0.067    -0.000     0.001
 2022 146    26  14865.69   0.000   0.000   0.000   0.000   0.000   0.093     0.000     0.001
 2022 147    27  14865.54   0.000   0.000   0.000   0.000   0.000   0.152    -0.001    -0.000
 2022 148    28  14865.31   0.000   0.000   0.000   0.000   0.000   0.235     0.001     0.001
 2022 149    29  14865.00   0.000   0.000   0.000   0.000   0.000   0.310    -0.000     0.001
 2022 150    30  14864.61   0.000   0.000   0.000   0.000   0.000   0.388    -0.000     0.000
 2022 151    31  14864.21   0.000   0.000   0.000   0.000   0.000   0.396    -0.000     0.000
 2022 152    32  14863.82   0.000   0.000   0.000   0.000   0.000   0.391     0.000     0.000
 2022 153    33  14863.46   0.002   0.000   0.000   0.002   0.000   0.365     0.002     0.002
 2022 154    34  14863.13   0.004   0.000   0.000   0.002   0.000   0.327     0.000     0.003
 2022 155    35  14862.83   0.006   0.000   0.000   0.002   0.000   0.297    -0.001     0.002
 2022 156    36  14862.50   0.008   0.000   0.000   0.002   0.000   0.336     0.001     0.003
 2022 157    37  14862.12   0.010   0.000   0.000   0.002   0.000   0.376    -0.001     0.003
 2022 158    38  14861.70   0.013   0.000   0.000   0.003   0.000   0.422    -0.000     0.003
 2022 159    39  14861.25   0.016   0.000   0.000   0.003   0.000   0.448     0.000     0.003
 2022 160    40  14860.79   0.019   0.000   0.000   0.003   0.000   0.458     0.002     0.005
 2022 161    41  14860.33   0.023   0.000   0.000   0.004   0.000   0.458    -0.001     0.004
 2022 162    42  14859.87   0.027   0.000   0.000   0.004   0.000   0.461    -0.001     0.003
 2022 163    43  14859.38   0.032   0.000   0.000   0.005   0.000   0.490     0.001     0.005
 2022 164    44  14858.84   0.037   0.000   0.000   0.005   0.000   0.546     0.001     0.005
 2022 165    45  14858.21   0.042   0.000   0.000   0.005   0.000   0.624     0.001     0.006
 2022 166    46  14857.58   0.048   0.000   0.000   0.006   0.000   0.634     0.001     0.006
 2022 167    47  14856.95   0.054   0.000   0.000   0.006   0.000   0.631     0.001     0.007
 2022 168    48  14856.35   0.061   0.000   0.000   0.007   0.000   0.595     0.000     0.007
 2022 169    49  14855.75   0.069   0.000   0.000   0.008   0.000   0.601    -0.000     0.007
 2022 170    50  14855.17   0.077   0.000   0.000   0.008   0.000   0.587     0.001     0.009
 2022 171    51  14854.55   0.086   0.000   0.000   0.009   0.000   0.612     0.001     0.009
 2022 172    52  14853.91   0.096   0.000   0.000   0.009   0.000   0.642     0.000     0.010
 2022 173    53  14853.29   0.106   0.000   0.000   0.009   0.000   0.624     0.000     0.010
 2022 174    54  14852.72   0.117   0.000   0.000   0.010   0.000   0.564    -0.001     0.009
 2022 175    55  14852.19   0.129   0.000   0.000   0.011   0.000   0.532     0.001     0.010
 2022 176    56  14851.69   0.141   0.000   0.000   0.011   0.000   0.501     0.001     0.011
 2022 177    57  14851.24   0.154   0.000   0.000   0.011   0.000   0.445    -0.000     0.011
 2022 178    58  14850.82   0.168   0.000   0.000   0.012   0.000   0.422     0.001     0.012
 2022 179    59  14850.39   0.182   0.000   0.000   0.012   0.000   0.423     0.000     0.013
 2022 180    60  14849.98   0.197   0.000   0.000   0.013   0.000   0.404     0.001     0.014
 2022 181    61  14849.57   0.212   0.000   0.000   0.013   0.000   0.414    -0.000     0.014
 2022 182    62  14849.12   0.228   0.000   0.000   0.014   0.000   0.443    -0.000     0.013
 2022 183    63  14848.64   0.244   0.000   0.000   0.014   0.000   0.475     0.000     0.014
 2022 184    64  14848.08   0.266   0.000   0.000   0.014   0.000   0.554     0.001     0.014
 2022 185    65  14847.49   0.290   0.000   0.000   0.015   0.000   0.586     0.001     0.015
 2022 186    66  14846.89   0.315   0.000   0.000   0.016   0.000   0.593     0.001     0.016
 2022 187    67  14846.26   0.341   0.000   0.000   0.016   0.000   0.613     0.001     0.017
 2022 188    68  14845.63   0.369   0.000   0.000   0.017   0.000   0.623    -0.000     0.017
 2022 189    69  14844.98   0.396   0.000   0.000   0.017   0.000   0.642    -0.001     0.016
 2022 190    70  14844.31   0.424   0.000   0.000   0.018   0.000   0.654     0.002     0.018
 2022 191    71  14843.65   0.451   0.000   0.000   0.018   0.000   0.651     0.000     0.018
 2022 192    72  14842.99   0.477   0.000   0.000   0.018   0.000   0.657     0.000     0.018
 2022 193    73  14842.34   0.502   0.000   0.000   0.019   0.000   0.640     0.001     0.019
 2022 194    74  14841.71   0.526   0.000   0.000   0.019   0.000   0.622    -0.000     0.019
 2022 195    75  14841.09   0.550   0.000   0.000   0.020   0.000   0.617     0.000     0.020
 2022 196    76  14840.48   0.575   0.000   0.000   0.020   0.000   0.608    -0.000     0.019
 2022 197    77  14839.91   0.598   0.000   0.000   0.020   0.000   0.569     0.001     0.021
 2022 198    78  14839.32   0.623   0.000   0.000   0.021   0.000   0.586     0.001     0.022
 2022 199    79  14838.73   0.647   0.000   0.000   0.021   0.000   0.590    -0.001     0.021
 2022 200    80  14838.14   0.671   0.000   0.000   0.021   0.000   0.579     0.001     0.022
 2022 201    81  14837.60   0.696   0.000   0.000   0.022   0.000   0.536    -0.001     0.021
 2022 202    82  14837.09   0.720   0.000   0.000   0.022   0.000   0.512     0.001     0.021
 2022 203    83  14836.54   0.746   0.000   0.000   0.022   0.000   0.551     0.001     0.022
 2022 204    84  14835.97   0.771   0.000   0.000   0.023   0.000   0.561     0.001     0.023
 2022 205    85  14835.42   0.797   0.000   0.000   0.023   0.000   0.547     0.000     0.023
 2022 206    86  14834.89   0.823   0.000   0.000   0.023   0.000   0.526     0.001     0.024
 2022 207    87  14834.38   0.849   0.000   0.000   0.024   0.000   0.513     0.000     0.024
 2022 208    88  14833.89   0.875   0.000   0.000   0.024   0.000   0.487    -0.000     0.024
 2022 209    89  14833.39   0.902   0.000   0.000   0.024   0.000   0.492     0.001     0.025
 2022 210    90  14832.93   0.929   0.000   0.000   0.025   0.000   0.459     0.001     0.026
 2022 211    91  14832.47   0.957   0.000   0.000   0.025   0.000   0.457    -0.001     0.025
 2022 212    92  14832.01   0.984   0.000   0.000   0.025   0.000   0.464     0.001     0.025
 2022 213    93  14831.53   1.011   0.000   0.000   0.025   0.000   0.475    -0.001     0.025
 2022 214    94  14831.04   1.039   0.000   0.000   0.026   0.000   0.493     0.001     0.026
 2022 215    95  14830.50   1.067   0.000   0.000   0.026   0.000   0.536    -0.001     0.025
 2022 216    96  14829.95   1.094   0.000   0.000   0.026   0.000   0.546     0.002     0.027
 2022 217    97  14829.40   1.122   0.000   0.000   0.027   0.000   0.549     0.000     0.027
 2022 218    98  14828.84   1.150   0.000   0.000   0.027   0.000   0.554    -0.001     0.027
 2022 219    99  14828.30   1.178   0.000   0.000   0.027   0.000   0.541     0.001     0.027
 2022 220   100  14827.81   1.206   0.000   0.000   0.028   0.000   0.494    -0.000     0.027
 2022 221   101  14827.35   1.236   0.000   0.000   0.028   0.000   0.458     0.001     0.028
 2022 222   102  14826.90   1.265   0.000   0.000   0.028   0.000   0.449    -0.000     0.028
 2022 223   103  14826.47   1.296   0.000   0.000   0.029   0.000   0.425     0.002     0.030
 2022 224   104  14826.05   1.326   0.000   0.000   0.029   0.000   0.416    -0.001     0.028
 2022 225   105  14825.61   1.357   0.000   0.000   0.029   0.000   0.445     0.001     0.030
 2022 226   106  14825.14   1.388   0.000   0.000   0.030   0.000   0.461     0.001     0.030
 2022 227   107  14824.68   1.420   0.000   0.000   0.030   0.000   0.458    -0.001     0.030
 2022 228   108  14824.19   1.452   0.000   0.000   0.030   0.000   0.493     0.001     0.031
 2022 229   109  14823.72   1.483   0.000   0.000   0.031   0.000   0.473     0.000     0.031
 2022 230   110  14823.28   1.515   0.000   0.000   0.031   0.000   0.440     0.001     0.032
 2022 231   111  14822.85   1.548   0.000   0.000   0.032   0.000   0.423    -0.000     0.032
 2022 232   112  14822.46   1.582   0.000   0.000   0.032   0.000   0.394     0.001     0.033
 2022 233   113  14822.09   1.616   0.000   0.000   0.033   0.000   0.366    -0.001     0.032
 2022 234   114  14821.71   1.650   0.000   0.000   0.033   0.000   0.375    -0.000     0.032
 2022 235   115  14821.33   1.685   0.000   0.000   0.033   0.000   0.376     0.001     0.033
 2022 236   116  14820.96   1.720   0.000   0.000   0.034   0.000   0.372     0.000     0.033
 2022 237   117  14820.58   1.755   0.000   0.000   0.034   0.000   0.379     0.000     0.033
 2022 238   118  14820.18   1.791   0.000   0.000   0.035   0.000   0.403    -0.000     0.033
 2022 239   119  14819.76   1.828   0.000   0.000   0.035   0.000   0.414     0.001     0.034
 2022 240   120  14819.34   1.864   0.000   0.000   0.035   0.000   0.423     0.001     0.034
 2022 241   121  14818.90   1.901   0.000   0.000   0.036   0.000   0.429    -0.000     0.034
 2022 242   122  14818.48   1.939   0.000   0.000   0.036   0.000   0.420     0.002     0.036
 2022 243   123  14818.08   1.977   0.000   0.000   0.037   0.000   0.401    -0.001     0.035
 2022 244   124  14817.68   2.015   0.000   0.000   0.037   0.000   0.404     0.001     0.037
 2022 245   125  14817.29   2.053   0.000   0.000   0.037   0.000   0.389     0.000     0.037
 2022 246   126  14816.90   2.091   0.000   0.000   0.038   0.000   0.382     0.000     0.037
 2022 247   127  14816.53   2.130   0.000   0.000   0.038   0.000   0.373     0.002     0.039
 2022 248   128  14816.17   2.170   0.000   0.000   0.038   0.000   0.363    -0.001     0.038
 2022 249   129  14815.81   2.209   0.000   0.000   0.039   0.000   0.353    -0.001     0.037
 2022 250   130  14815.45   2.249   0.000   0.000   0.039   0.000   0.359     0.001     0.039
 2022 251   131  14815.10   2.289   0.000   0.000   0.040   0.000   0.351    -0.000     0.039
 2022 252   132  14814.73   2.330   0.000   0.000   0.040   0.000   0.374     0.001     0.040
 2022 253   133  14814.36   2.371   0.000   0.000   0.040   0.000   0.363     0.000     0.040
 2022 254   134  14814.00   2.411   0.000   0.000   0.040   0.000   0.361     0.000     0.040
 2022 255   135  14813.68   2.452   0.000   0.000   0.041   0.000   0.320     0.000     0.041
 2022 256   136  14813.38   2.494   0.000   0.000   0.041   0.000   0.300     0.002     0.042
 2022 257   137  14813.11   2.535   0.000   0.000   0.042   0.000   0.270    -0.002     0.041
 2022 258   138  14812.81   2.577   0.000   0.000   0.042   0.000   0.299     0.001     0.042
 2022 259   139  14812.48   2.619   0.000   0.000   0.042   0.000   0.331     0.000     0.042
 2022 260   140  14812.10   2.660   0.000   0.000   0.042   0.000   0.384     0.001     0.043
 2022 261   141  14811.69   2.658   0.000   0.000   0.000   0.000   0.408    -0.042     0.001
 2022 262   142  14811.28   2.655   0.000   0.000   0.000   0.000   0.412    -0.001     0.000
 2022 263   143  14810.88   2.652   0.000   0.000   0.000   0.000   0.405    -0.000    -0.000


!                                        INITIAL Year/Doy      FINAL Year/Doy
!                                                2022/121            2022/263
!SOIL N BALANCE                                 -----------kg N/ha-----------

!   Soil Humus N                                 14871.79            14810.88
!   Soil Litter N                                    0.00                2.65
!   N in Surface Residue                             0.00                0.00

!   Added to / Removed from Soil:
!   N in Harvest Residues from Previous Crop         0.00
!   N from Organic Applications                      0.00
!   N from senesced plant matter                     2.44
!   N immobilized                                    0.00
!   N mineralized                                                       60.70

!   Total N balance                              14874.23            14874.23
!   Balance                                                             0.000
