*WATER BALANCE OUTPUT FILE

*DSSAT Cropping System Model Ver. 4.8.2.000 -release  APR 04, 2025 15:50:50

*RUN   1        : farm_23                   MZCER048 UNLI2309    1
 MODEL          : MZCER048 - Maize
 EXPERIMENT     : UNLI2309 MZ PIO1366
 DATA PATH      :
 TREATMENT  1   : farm_23                   MZCER048
  
@YEAR DOY   DAS    SWTD    FWTD    SNTD   MWTD   IRRD   PRED  RESAD   LFLOD  MEVAP   DRND   ROFD   FROD   ESAD   EPAD   EFAD   TDFD    WBAL   CUMWBAL        TOTS    TOTU    TOTX    TOTT    TOTL
 2023 109     0  425.29    0.00    0.00   0.87   0.00   0.00   0.00    0.00   0.00   0.00   0.00   0.00   0.00   0.00   0.00   0.00    0.00      0.00        0.00    0.00    0.00    0.00    0.00
 2023 110     1  425.15    0.00    0.00   0.30   0.00   0.00   0.00    0.00   0.58   0.00   0.00   0.00   0.14   0.00   0.00   0.00    0.00      0.00        0.00   -0.00    0.00    0.00    0.00
 2023 111     2  425.15    0.00    0.00   0.93   0.00   0.00   0.87    0.00   0.24   0.00   0.00   0.00   0.00   0.00   0.00   0.00   -0.00      0.00        0.00    0.00    0.00    0.00    0.00
 2023 112     3  425.15    0.00    0.00   0.18   0.00   0.00   0.00    0.00   0.75   0.00   0.00   0.00   0.00   0.00   0.00   0.00    0.00      0.00        0.00   -0.00    0.00    0.00    0.00
 2023 113     4  425.11    0.00    0.00   0.03   0.00   0.00   0.00    0.00   0.14   0.00   0.00   0.00   0.03   0.00   0.00   0.00    0.00      0.00        0.00    0.00    0.00    0.00    0.00
 2023 114     5  424.95    0.00    0.00   0.01   0.00   0.00   0.00    0.00   0.03   0.00   0.00   0.00   0.16   0.00   0.00   0.00    0.00      0.00        0.00    0.00    0.00    0.00    0.00
 2023 115     6  424.81    0.00    0.00   0.00   0.00   0.00   0.00    0.00   0.01   0.00   0.00   0.00   0.14   0.00   0.00   0.00    0.00      0.00        0.00    0.00    0.00    0.00    0.00
 2023 116     7  424.61    0.00    0.00   0.00   0.00   0.00   0.00    0.00   0.00   0.00   0.00   0.00   0.20   0.00   0.00   0.00   -0.00      0.00        0.00   -0.00    0.00    0.00    0.00
 2023 117     8  424.41    0.00    0.00   0.00   0.00   0.00   0.00    0.00   0.00   0.00   0.00   0.00   0.20   0.00   0.00   0.00   -0.00      0.00        0.00    0.00    0.00    0.00    0.00
 2023 118     9  424.26    0.00    0.00   0.00   0.00   0.00   0.00    0.00   0.00   0.00   0.00   0.00   0.16   0.00   0.00   0.00    0.00      0.00        0.00   -0.00    0.00    0.00    0.00
 2023 119    10  424.01    0.00    0.00   0.00   0.00   0.00   0.00    0.00   0.00   0.00   0.00   0.00   0.25   0.00   0.00   0.00    0.00      0.00        0.00   -0.00    0.00    0.00    0.00
 2023 120    11  423.78    0.00    0.00   0.00   0.00   0.00   0.00    0.00   0.00   0.00   0.00   0.00   0.23   0.00   0.00   0.00   -0.00      0.00        0.00    0.00    0.00    0.00    0.00
 2023 121    12  423.55    0.00    0.00   0.00   0.00   0.00   0.00    0.00   0.00   0.00   0.00   0.00   0.23   0.00   0.00   0.00    0.00      0.00        0.00    0.00    0.00    0.00    0.00
 2023 122    13  423.31    0.00    0.00   0.00   0.00   0.00   0.00    0.00   0.00   0.00   0.00   0.00   0.24   0.00   0.00   0.00    0.00      0.00        0.00    0.00    0.00    0.00    0.00
 2023 123    14  423.07    0.00    0.00   0.00   0.00   0.00   0.00    0.00   0.00   0.00   0.00   0.00   0.25   0.00   0.00   0.00    0.00      0.00        0.00    0.00    0.00    0.00    0.00
 2023 124    15  436.07    0.00    0.00   3.50   0.00  16.80   0.00    0.00   0.00   0.00   0.00   0.00   0.30   0.00   0.00   0.00    0.00      0.00       13.30    0.00    0.00    0.00    0.00
 2023 125    16  450.57    0.00    0.00   0.92   0.00  14.50   0.00    0.00   2.58   0.00   0.00   0.00   0.00   0.00   0.00   0.00    0.00      0.00       14.50    0.00    0.00    0.00    0.00
 2023 126    17  450.58    0.00    0.00   0.46   0.00   0.30   0.00    0.00   0.74   0.00   0.00   0.00   0.00   0.00   0.00   0.00   -0.00      0.00        0.01    0.00    0.00    0.00    0.00
 2023 127    18  450.60    0.00    0.00   0.37   0.00   0.30   0.00    0.00   0.37   0.00   0.00   0.00   0.00   0.00   0.00   0.00    0.00      0.00        0.01    0.00    0.00    0.00    0.00
 2023 128    19  450.58    0.00    0.00   0.07   0.00   0.00   0.00    0.00   0.30   0.00   0.00   0.00   0.01   0.00   0.00   0.00   -0.00      0.00        0.00    0.00    0.00    0.00    0.00
 2023 129    20  450.47    0.00    0.00   2.67   0.00   2.80   0.00    0.00   0.06   0.00   0.00   0.00   0.25   0.00   0.00   0.00   -0.00      0.00        0.14    0.00    0.00    0.00    0.00
 2023 130    21  471.99    0.00    0.00   1.71   0.00  22.40   0.00    0.00   1.85   0.00   0.00   0.00   0.00   0.00   0.00   0.00   -0.00      0.00       21.52    0.00    0.00    0.00    0.00
 2023 131    22  489.84    0.00    0.00   3.57   0.00  21.10   0.00    0.00   1.38   0.00   0.00   0.00   0.00   0.00   0.00   0.00    0.00      0.00       17.86   -0.00    0.00    0.00    0.00
 2023 132    23  513.13    0.00    0.00   2.60   0.00  24.60   0.00    0.00   2.27   0.00   0.00   0.00   0.00   0.00   0.00   0.00   -0.00      0.00       23.29   -0.00   -0.00    0.00    0.00
 2023 133    24  513.18    0.00    0.00   1.45   0.00   1.00   0.00    0.00   2.10   0.00   0.00   0.00   0.00   0.01   0.00   0.00    0.00      0.00        0.05   -0.00   -0.01    0.00    0.00
 2023 134    25  513.19    0.00    0.00   0.90   0.00   0.30   0.00    0.00   0.84   0.00   0.00   0.00   0.00   0.00   0.00   0.00   -0.00      0.00        0.01   -0.00   -0.00    0.00    0.00
 2023 135    26  513.20    0.00    0.00   0.46   0.00   0.30   0.00    0.00   0.73   0.00   0.00   0.00   0.00   0.00   0.00   0.00   -0.00      0.00        0.01    0.00   -0.00    0.00    0.00
 2023 136    27  505.85    0.00    0.00   0.09   0.00   0.00   0.00    0.00   0.37   7.23   0.00   0.00   0.10   0.01   0.00   0.00    0.00      0.00       -7.23   -0.00   -0.01    0.00    0.00
 2023 137    28  505.56    0.00    0.00   3.50   0.00   4.30   0.00    0.00   0.07   0.69   0.00   0.00   0.39   0.02   0.00   0.00    0.00      0.00        0.12    0.00   -0.02    0.00    0.00
 2023 138    29  498.84    0.00    0.00   0.67   0.00   0.00   0.00    0.00   2.83   6.70   0.00   0.00   0.00   0.02   0.00   0.00   -0.00      0.00       -6.70   -0.00   -0.02    0.00    0.00
 2023 139    30  497.44    0.00    0.00   0.13   0.00   0.00   0.00    0.00   0.54   1.37   0.00   0.00   0.00   0.03   0.00   0.00    0.00      0.00       -1.37    0.00   -0.03    0.00    0.00
 2023 140    31  497.04    0.00    0.00   0.02   0.00   0.00   0.00    0.00   0.10   0.00   0.00   0.00   0.37   0.03   0.00   0.00    0.00      0.00        0.00    0.00   -0.03    0.00    0.00
 2023 141    32  496.54    0.00    0.00   0.00   0.00   0.00   0.00    0.00   0.02   0.00   0.00   0.00   0.46   0.03   0.00   0.00   -0.00      0.00        0.00    0.00   -0.03    0.00    0.00
 2023 142    33  496.01    0.00    0.00   0.00   0.00   0.00   0.00    0.00   0.00   0.00   0.00   0.00   0.49   0.04   0.00   0.00    0.00      0.00        0.00    0.00   -0.04    0.00    0.00
 2023 143    34  495.47    0.00    0.00   0.00   0.00   0.00   0.00    0.00   0.00   0.00   0.00   0.00   0.48   0.06   0.00   0.00    0.00      0.00        0.00   -0.00   -0.06    0.00    0.00
 2023 144    35  494.87    0.00    0.00   0.00   0.00   0.00   0.00    0.00   0.00   0.00   0.00   0.00   0.51   0.09   0.00   0.00   -0.00      0.00        0.00   -0.00   -0.09    0.00    0.00
 2023 145    36  494.59    0.00    0.00   3.50   0.00   3.80   0.00    0.00   0.00   0.00   0.00   0.00   0.47   0.12   0.00   0.00    0.00      0.00        0.30    0.00   -0.12    0.00    0.00
 2023 146    37  515.99    0.00    0.00   2.19   0.00  22.10   0.00    0.00   1.31   0.65   0.00   0.00   0.00   0.05   0.00   0.00    0.00      0.00       21.45    0.00   -0.05    0.00    0.00
 2023 147    38  515.08    0.00    0.00   1.85   0.00   1.50   0.00    0.00   1.77   0.79   0.00   0.00   0.00   0.19   0.00   0.00   -0.00      0.00       -0.72    0.00   -0.19    0.00    0.00
 2023 148    39  541.82    0.00    0.00   3.58   0.00  31.50   0.00    0.00   1.49   1.33   0.00   0.00   0.00   0.20   0.00   0.00    0.00      0.00       26.95    0.00   -0.20    0.00    0.00
 2023 149    40  541.12    0.00    0.00   2.10   0.00   3.30   0.00    0.00   2.89   2.32   0.00   0.00   0.00   0.28   0.00   0.00    0.00      0.00       -0.43    0.00   -0.28    0.00    0.00
 2023 150    41  512.45    0.00    0.00   0.40   0.00   0.00   0.00    0.00   1.70  28.31   0.00   0.00   0.00   0.36   0.00   0.00   -0.00      0.00      -28.31    0.00   -0.36    0.00    0.00
 2023 151    42  500.68    0.00    0.00   0.08   0.00   0.00   0.00    0.00   0.33  11.11   0.00   0.00   0.23   0.43   0.00   0.00   -0.00      0.00      -11.11    0.00   -0.43    0.00    0.00
 2023 152    43  497.12    0.00    0.00   0.01   0.00   0.00   0.00    0.00   0.06   2.93   0.00   0.00   0.29   0.32   0.00   0.00    0.00      0.00       -2.93    0.00   -0.32    0.00    0.00
 2023 153    44  496.43    0.00    0.00   0.00   0.00   0.00   0.00    0.00   0.01   0.00   0.00   0.00   0.33   0.36   0.00   0.00    0.00      0.00        0.00   -0.00   -0.36    0.00    0.00
 2023 154    45  518.44    0.00    0.00   3.50   0.00  26.70   0.00    0.00   0.00   0.52   0.00   0.00   0.31   0.36   0.00   0.00    0.00      0.00       22.68    0.00   -0.36    0.00    0.00
 2023 155    46  503.84    0.00    0.00   0.67   0.00   0.00   0.00    0.00   2.83  13.96   0.00   0.00   0.00   0.64   0.00   0.00    0.00      0.00      -13.96    0.00   -0.64    0.00    0.00
 2023 156    47  503.74    0.00    0.00   3.53   0.00   4.60   0.00    0.00   0.54   0.59   0.00   0.00   0.00   0.71   0.00   0.00   -0.00      0.00        0.61    0.00   -0.71    0.00    0.00
 2023 157    48  498.48    0.00    0.00   0.68   0.00   0.00   0.00    0.00   2.85   4.50   0.00   0.00   0.00   0.76   0.00   0.00    0.00      0.00       -4.50    0.00   -0.76    0.00    0.00
 2023 158    49  496.77    0.00    0.00   0.13   0.00   0.00   0.00    0.00   0.55   0.88   0.00   0.00   0.00   0.83   0.00   0.00    0.00      0.00       -0.88    0.00   -0.83    0.00    0.00
 2023 159    50  495.41    0.00    0.00   0.03   0.00   0.00   0.00    0.00   0.11   0.00   0.00   0.00   0.44   0.92   0.00   0.00   -0.00      0.00        0.00   -0.00   -0.92    0.00    0.00
 2023 160    51  494.76    0.00    0.00   3.50   0.00   4.10   0.00    0.00   0.02   0.00   0.00   0.00   0.42   0.83   0.00   0.00    0.00      0.00        0.60    0.00   -0.83    0.00    0.00
 2023 161    52  493.87    0.00    0.00   0.67   0.00   0.00   0.00    0.00   2.83   0.00   0.00   0.00   0.00   0.89   0.00   0.00   -0.00      0.00        0.00    0.00   -0.89    0.00    0.00
 2023 162    53  493.02    0.00    0.00   0.13   0.00   0.00   0.00    0.00   0.54   0.00   0.00   0.00   0.00   0.85   0.00   0.00    0.00      0.00        0.00   -0.00   -0.85    0.00    0.00
 2023 163    54  491.86    0.00    0.00   0.02   0.00   0.00   0.00    0.00   0.10   0.00   0.00   0.00   0.29   0.87   0.00   0.00   -0.00      0.00        0.00   -0.00   -0.87    0.00    0.00
 2023 164    55  490.40    0.00    0.00   0.00   0.00   0.00   0.00    0.00   0.02   0.00   0.00   0.00   0.44   1.02   0.00   0.00    0.00      0.00        0.00   -0.00   -1.02    0.00    0.00
 2023 165    56  488.95    0.00    0.00   0.00   0.00   0.00   0.00    0.00   0.00   0.00   0.00   0.00   0.44   1.01   0.00   0.00   -0.00      0.00        0.00   -0.00   -1.01    0.00    0.00
 2023 166    57  487.43    0.00    0.00   0.29   0.00   0.30   0.00    0.00   0.00   0.00   0.00   0.00   0.45   1.10   0.00   0.00   -0.00      0.00        0.01   -0.00   -1.10    0.00    0.00
 2023 167    58  486.23    0.00    0.00   0.05   0.00   0.00   0.00    0.00   0.23   0.00   0.00   0.00   0.15   1.05   0.00   0.00    0.00      0.00        0.00    0.00   -1.05    0.00    0.00
 2023 168    59  484.73    0.00    0.00   0.49   0.00   0.50   0.00    0.00   0.04   0.00   0.00   0.00   0.35   1.17   0.00   0.00    0.00      0.00        0.02   -0.00   -1.17    0.00    0.00
 2023 169    60  483.22    0.00    0.00   0.09   0.00   0.00   0.00    0.00   0.39   0.00   0.00   0.00   0.08   1.43   0.00   0.00   -0.00      0.00        0.00    0.00   -1.43    0.00    0.00
 2023 170    61  481.16    0.00    0.00   0.02   0.00   0.00   0.00    0.00   0.08   0.00   0.00   0.00   0.43   1.63   0.00   0.00    0.00      0.00        0.00    0.00   -1.63    0.00    0.00
 2023 171    62  480.04    0.00    0.00   0.29   0.00   0.30   0.00    0.00   0.01   0.00   0.00   0.00   0.23   0.91   0.00   0.00   -0.00      0.00        0.01   -0.00   -0.91    0.00    0.00
 2023 172    63  478.67    0.00    0.00   2.43   0.00   2.50   0.00    0.00   0.23   0.00   0.00   0.00   0.12   1.38   0.00   0.00   -0.00      0.00        0.12    0.00   -1.38    0.00    0.00
 2023 173    64  500.01    0.00    0.00   1.77   0.00  23.90   0.00    0.00   1.96   0.00   0.00   0.00   0.00   1.26   0.00   0.00   -0.00      0.00       22.60    0.00   -1.26    0.00    0.00
 2023 174    65  503.13    0.00    0.00   3.57   0.00   7.90   0.00    0.00   1.43   0.00   0.00   0.00   0.00   1.54   0.00   0.00    0.00      0.00        4.67    0.00   -1.54    0.00    0.00
 2023 175    66  501.31    0.00    0.00   1.92   0.00   1.30   0.00    0.00   2.89   0.00   0.00   0.00   0.00   1.89   0.00   0.00   -0.00      0.00        0.06    0.00   -1.89    0.00    0.00
 2023 176    67  497.05    0.00    0.00   0.37   0.00   0.00   0.00    0.00   1.55   2.42   0.00   0.00   0.00   1.84   0.00   0.00   -0.00      0.00       -2.42    0.00   -1.84    0.00    0.00
 2023 177    68  494.63    0.00    0.00   0.07   0.00   0.00   0.00    0.00   0.30   0.52   0.00   0.00   0.12   1.78   0.00   0.00   -0.00      0.00       -0.52   -0.00   -1.78    0.00    0.00
 2023 178    69  492.65    0.00    0.00   0.01   0.00   0.00   0.00    0.00   0.06   0.00   0.00   0.00   0.33   1.65   0.00   0.00   -0.00      0.00        0.00    0.00   -1.65    0.00    0.00
 2023 179    70  490.16    0.00    0.00   0.00   0.00   0.00   0.00    0.00   0.01   0.00   0.00   0.00   0.44   2.05   0.00   0.00    0.00      0.00        0.00   -0.00   -2.05    0.00    0.00
 2023 180    71  489.99    0.00    0.00   3.50   0.00   5.80   0.00    0.00   0.00   0.00   0.00   0.00   0.44   2.03   0.00   0.00    0.00      0.00        2.30   -0.00   -2.03    0.00    0.00
 2023 181    72  501.30    0.00    0.00   1.71   0.00  12.40   0.00    0.00   1.79   0.00   0.00   0.00   0.00   1.09   0.00   0.00   -0.00      0.00       12.40   -0.00   -1.09    0.00    0.00
 2023 182    73  499.84    0.00    0.00   1.09   0.00   0.80   0.00    0.00   1.38   0.00   0.00   0.00   0.00   1.50   0.00   0.00    0.00      0.00        0.04    0.00   -1.50    0.00    0.00
 2023 183    74  496.51    0.00    0.00   0.21   0.00   0.00   0.00    0.00   0.88   1.40   0.00   0.00   0.00   1.92   0.00   0.00    0.00      0.00       -1.40   -0.00   -1.92    0.00    0.00
 2023 184    75  494.00    0.00    0.00   0.04   0.00   0.00   0.00    0.00   0.17   0.13   0.00   0.00   0.30   2.09   0.00   0.00    0.00      0.00       -0.13    0.00   -2.09    0.00    0.00
 2023 185    76  493.25    0.00    0.00   3.50   0.00   4.80   0.00    0.00   0.03   0.00   0.00   0.00   0.33   1.73   0.00   0.00   -0.00      0.00        1.31   -0.00   -1.73    0.00    0.00
 2023 186    77  492.81    0.00    0.00   2.49   0.00   0.30   0.00    0.00   1.04   0.00   0.00   0.00   0.00   0.71   0.00   0.00    0.00      0.00        0.27   -0.00   -0.71    0.00    0.00
 2023 187    78  503.18    0.00    0.00   3.31   0.00  13.20   0.00    0.00   1.24   0.00   0.00   0.00   0.00   0.78   0.00   0.00   -0.00      0.00       11.14    0.00   -0.78    0.00    0.00
 2023 188    79  509.11    0.00    0.00   2.06   0.00   9.10   0.00    0.00   2.67   0.00   0.00   0.00   0.00   1.74   0.00   0.00   -0.00      0.00        7.67   -0.00   -1.74    0.00    0.00
 2023 189    80  507.58    0.00    0.00   1.21   0.00   0.80   0.00    0.00   1.62   0.60   0.00   0.00   0.00   0.97   0.00   0.00   -0.00      0.00       -0.56    0.00   -0.97    0.00    0.00
 2023 190    81  498.93    0.00    0.00   0.23   0.00   0.00   0.00    0.00   0.97   6.86   0.00   0.00   0.00   1.79   0.00   0.00    0.00      0.00       -6.86    0.00   -1.79    0.00    0.00
 2023 191    82  501.68    0.00    0.00   3.51   0.00   8.40   0.00    0.00   0.19   0.00   0.00   0.00   0.27   1.92   0.00   0.00   -0.00      0.00        4.93    0.00   -1.92    0.00    0.00
 2023 192    83  496.92    0.00    0.00   0.68   0.00   0.00   0.00    0.00   2.83   3.01   0.00   0.00   0.00   1.75   0.00   0.00    0.00      0.00       -3.01    0.00   -1.75    0.00    0.00
 2023 193    84  494.68    0.00    0.00   0.13   0.00   0.00   0.00    0.00   0.55   0.34   0.00   0.00   0.00   1.90   0.00   0.00    0.00      0.00       -0.34    0.00   -1.90    0.00    0.00
 2023 194    85  507.18    0.00    0.00   3.51   0.00  17.50   0.00    0.00   0.10   0.00   0.00   0.00   0.21   1.30   0.00   0.00    0.00      0.00       14.02    0.00   -1.30    0.00    0.00
 2023 195    86  517.34    0.00    0.00   1.02   0.00  12.20   0.00    0.00   2.58   0.61   0.00   0.00   0.00   1.33   0.00   0.00    0.00      0.00       11.49    0.00   -1.33    0.00    0.00
 2023 196    87  503.11    0.00    0.00   0.20   0.00   0.00   0.00    0.00   0.83  12.73   0.00   0.00   0.00   1.50   0.00   0.00    0.00      0.00      -12.73    0.00   -1.50    0.00    0.00
 2023 197    88  500.79    0.00    0.00   0.32   0.00   0.30   0.00    0.00   0.16   0.62   0.00   0.00   0.23   1.49   0.00   0.00    0.00      0.00       -0.60    0.00   -1.49    0.00    0.00
 2023 198    89  496.38    0.00    0.00   0.06   0.00   0.00   0.00    0.00   0.26   2.57   0.00   0.00   0.17   1.66   0.00   0.00   -0.00      0.00       -2.57    0.00   -1.66    0.00    0.00
 2023 199    90  494.81    0.00    0.00   0.01   0.00   0.00   0.00    0.00   0.05   0.10   0.00   0.00   0.27   1.21   0.00   0.00   -0.00      0.00       -0.10    0.00   -1.21    0.00    0.00
 2023 200    91  493.81    0.00    0.00   0.00   0.00   0.00   0.00    0.00   0.01   0.00   0.00   0.00   0.20   0.80   0.00   0.00   -0.00      0.00        0.00   -0.00   -0.80    0.00    0.00
 2023 201    92  494.41    0.00    0.00   3.50   0.00   5.10   0.00    0.00   0.00   0.00   0.00   0.00   0.21   0.78   0.00   0.00    0.00      0.00        1.60    0.00   -0.78    0.00    0.00
 2023 202    93  493.27    0.00    0.00   0.67   0.00   0.30   0.00    0.00   2.83   0.00   0.00   0.00   0.00   1.44   0.00   0.00    0.00      0.00        0.30   -0.00   -1.44    0.00    0.00
 2023 203    94  496.84    0.00    0.00   3.53   0.00   8.40   0.00    0.00   0.55   0.00   0.00   0.00   0.00   1.43   0.00   0.00    0.00      0.00        5.00   -0.00   -1.43    0.00    0.00
 2023 204    95  495.68    0.00    0.00   1.20   0.00   0.80   0.00    0.00   2.85   0.00   0.00   0.00   0.00   1.45   0.00   0.00   -0.00      0.00        0.28    0.00   -1.45    0.00    0.00
 2023 205    96  494.24    0.00    0.00   0.23   0.00   0.00   0.00    0.00   0.97   0.00   0.00   0.00   0.00   1.43   0.00   0.00    0.00      0.00        0.00    0.00   -1.43    0.00    0.00
 2023 206    97  492.52    0.00    0.00   0.04   0.00   0.00   0.00    0.00   0.19   0.00   0.00   0.00   0.29   1.43   0.00   0.00    0.00      0.00        0.00    0.00   -1.43    0.00    0.00
 2023 207    98  490.88    0.00    0.00   0.01   0.00   0.00   0.00    0.00   0.04   0.00   0.00   0.00   0.40   1.25   0.00   0.00   -0.00      0.00        0.00    0.00   -1.25    0.00    0.00
 2023 208    99  489.07    0.00    0.00   0.00   0.00   0.00   0.00    0.00   0.01   0.00   0.00   0.00   0.48   1.33   0.00   0.00   -0.00      0.00        0.00    0.00   -1.33    0.00    0.00
 2023 209   100  487.44    0.00    0.00   0.00   0.00   0.00   0.00    0.00   0.00   0.00   0.00   0.00   0.45   1.18   0.00   0.00    0.00      0.00        0.00    0.00   -1.18    0.00    0.00
 2023 210   101  485.78    0.00    0.00   0.76   0.00   0.80   0.00    0.00   0.00   0.00   0.00   0.00   0.48   1.23   0.00   0.00    0.00      0.00        0.04    0.00   -1.23    0.00    0.00
 2023 211   102  484.61    0.00    0.00   0.15   0.00   0.00   0.00    0.00   0.61   0.00   0.00   0.00   0.00   1.17   0.00   0.00    0.00      0.00        0.00   -0.00   -1.17    0.00    0.00
 2023 212   103  483.29    0.00    0.00   3.16   0.00   3.30   0.00    0.00   0.12   0.00   0.00   0.00   0.35   1.13   0.00   0.00    0.00      0.00        0.16   -0.00   -1.13    0.00    0.00
 2023 213   104  482.25    0.00    0.00   0.89   0.00   0.30   0.00    0.00   2.56   0.00   0.00   0.00   0.00   1.06   0.00   0.00    0.00      0.00        0.01   -0.00   -1.06    0.00    0.00
 2023 214   105  482.19    0.00    0.00   3.54   0.00   4.30   0.00    0.00   0.72   0.00   0.00   0.00   0.00   0.99   0.00   0.00    0.00      0.00        0.93   -0.00   -0.99    0.00    0.00
 2023 215   106  493.07    0.00    0.00   1.36   0.00  12.40   0.00    0.00   2.86   0.00   0.00   0.00   0.00   0.84   0.00   0.00    0.00      0.00       11.72    0.00   -0.84    0.00    0.00
 2023 216   107  509.43    0.00    0.00   3.56   0.00  20.60   0.00    0.00   1.10   0.00   0.00   0.00   0.00   0.94   0.00   0.00   -0.00      0.00       17.30   -0.00   -0.94    0.00    0.00
 2023 217   108  502.23    0.00    0.00   0.68   0.00   0.00   0.00    0.00   2.87   6.29   0.00   0.00   0.00   0.92   0.00   0.00   -0.00      0.00       -6.29   -0.00   -0.92    0.00    0.00
 2023 218   109  497.59    0.00    0.00   0.13   0.00   0.00   0.00    0.00   0.55   3.91   0.00   0.00   0.00   0.72   0.00   0.00    0.00      0.00       -3.91   -0.00   -0.72    0.00    0.00
 2023 219   110  512.62    0.00    0.00   3.51   0.00  19.10   0.00    0.00   0.11   0.00   0.00   0.00   0.13   0.46   0.00   0.00   -0.00      0.00       15.62    0.00   -0.46    0.00    0.00
 2023 220   111  511.50    0.00    0.00   0.77   0.00   0.30   0.00    0.00   2.83   0.67   0.00   0.00   0.00   0.65   0.00   0.00   -0.00      0.00       -0.47   -0.00   -0.65    0.00    0.00
 2023 221   112  509.97    0.00    0.00   1.86   0.00   1.80   0.00    0.00   0.63   0.86   0.00   0.00   0.00   0.76   0.00   0.00   -0.00      0.00       -0.77    0.00   -0.76    0.00    0.00
 2023 222   113  500.08    0.00    0.00   0.36   0.00   0.00   0.00    0.00   1.50   9.15   0.00   0.00   0.00   0.73   0.00   0.00   -0.00      0.00       -9.15    0.00   -0.73    0.00    0.00
 2023 223   114  496.70    0.00    0.00   0.07   0.00   0.00   0.00    0.00   0.29   2.45   0.00   0.00   0.18   0.75   0.00   0.00    0.00      0.00       -2.45    0.00   -0.75    0.00    0.00
 2023 224   115  495.64    0.00    0.00   0.01   0.00   0.00   0.00    0.00   0.06   0.15   0.00   0.00   0.32   0.59   0.00   0.00   -0.00      0.00       -0.15   -0.00   -0.59    0.00    0.00
 2023 225   116  494.89    0.00    0.00   0.00   0.00   0.00   0.00    0.00   0.01   0.00   0.00   0.00   0.29   0.46   0.00   0.00   -0.00      0.00        0.00   -0.00   -0.46    0.00    0.00
 2023 226   117  493.87    0.00    0.00   0.00   0.00   0.00   0.00    0.00   0.00   0.00   0.00   0.00   0.42   0.60   0.00   0.00    0.00      0.00        0.00    0.00   -0.60    0.00    0.00
 2023 227   118  492.86    0.00    0.00   0.00   0.00   0.00   0.00    0.00   0.00   0.00   0.00   0.00   0.43   0.59   0.00   0.00    0.00      0.00        0.00   -0.00   -0.59    0.00    0.00
 2023 228   119  491.78    0.00    0.00   0.00   0.00   0.00   0.00    0.00   0.00   0.00   0.00   0.00   0.47   0.62   0.00   0.00    0.00      0.00        0.00    0.00   -0.62    0.00    0.00
 2023 229   120  490.80    0.00    0.00   0.00   0.00   0.00   0.00    0.00   0.00   0.00   0.00   0.00   0.42   0.55   0.00   0.00    0.00      0.00        0.00    0.00   -0.55    0.00    0.00
 2023 230   121  489.78    0.00    0.00   0.00   0.00   0.00   0.00    0.00   0.00   0.00   0.00   0.00   0.46   0.57   0.00   0.00    0.00      0.00        0.00   -0.00   -0.57    0.00    0.00
 2023 231   122  488.68    0.00    0.00   0.00   0.00   0.00   0.00    0.00   0.00   0.00   0.00   0.00   0.49   0.60   0.00   0.00    0.00      0.00        0.00    0.00   -0.60    0.00    0.00
 2023 232   123  487.71    0.00    0.00   0.00   0.00   0.00   0.00    0.00   0.00   0.00   0.00   0.00   0.44   0.53   0.00   0.00   -0.00      0.00        0.00    0.00   -0.53    0.00    0.00
 2023 233   124  486.66    0.00    0.00   0.00   0.00   0.00   0.00    0.00   0.00   0.00   0.00   0.00   0.50   0.56   0.00   0.00    0.00      0.00        0.00    0.00   -0.56    0.00    0.00
 2023 234   125  485.65    0.00    0.00   0.00   0.00   0.00   0.00    0.00   0.00   0.00   0.00   0.00   0.48   0.53   0.00   0.00    0.00      0.00        0.00   -0.00   -0.53    0.00    0.00
 2023 235   126  484.74    0.00    0.00   0.00   0.00   0.00   0.00    0.00   0.00   0.00   0.00   0.00   0.44   0.48   0.00   0.00    0.00      0.00        0.00    0.00   -0.48    0.00    0.00
 2023 236   127  483.82    0.00    0.00   0.00   0.00   0.00   0.00    0.00   0.00   0.00   0.00   0.00   0.45   0.47   0.00   0.00   -0.00      0.00        0.00    0.00   -0.47    0.00    0.00
 2023 237   128  483.21    0.00    0.00   0.00   0.00   0.00   0.00    0.00   0.00   0.00   0.00   0.00   0.25   0.37   0.00   0.00    0.00      0.00        0.00    0.00   -0.37    0.00    0.00
 2023 238   129  482.41    0.00    0.00   0.00   0.00   0.00   0.00    0.00   0.00   0.00   0.00   0.00   0.40   0.40   0.00   0.00   -0.00      0.00        0.00    0.00   -0.40    0.00    0.00
 2023 239   130  481.62    0.00    0.00   0.00   0.00   0.00   0.00    0.00   0.00   0.00   0.00   0.00   0.40   0.39   0.00   0.00    0.00      0.00        0.00   -0.00   -0.39    0.00    0.00
 2023 240   131  480.93    0.00    0.00   0.00   0.00   0.00   0.00    0.00   0.00   0.00   0.00   0.00   0.35   0.34   0.00   0.00   -0.00      0.00        0.00    0.00   -0.34    0.00    0.00
 2023 241   132  480.20    0.00    0.00   0.00   0.00   0.00   0.00    0.00   0.00   0.00   0.00   0.00   0.38   0.36   0.00   0.00   -0.00      0.00        0.00    0.00   -0.36    0.00    0.00
 2023 242   133  479.44    0.00    0.00   0.00   0.00   0.00   0.00    0.00   0.00   0.00   0.00   0.00   0.40   0.36   0.00   0.00   -0.00      0.00        0.00   -0.00   -0.36    0.00    0.00
 2023 243   134  478.65    0.00    0.00   0.00   0.00   0.00   0.00    0.00   0.00   0.00   0.00   0.00   0.42   0.37   0.00   0.00    0.00      0.00        0.00    0.00   -0.37    0.00    0.00
 2023 244   135  477.81    0.00    0.00   0.00   0.00   0.00   0.00    0.00   0.00   0.00   0.00   0.00   0.45   0.39   0.00   0.00   -0.00      0.00        0.00   -0.00   -0.39    0.00    0.00
 2023 245   136  477.04    0.00    0.00   0.00   0.00   0.00   0.00    0.00   0.00   0.00   0.00   0.00   0.41   0.35   0.00   0.00    0.00      0.00        0.00   -0.00   -0.35    0.00    0.00
 2023 246   137  476.34    0.00    0.00   0.00   0.00   0.00   0.00    0.00   0.00   0.00   0.00   0.00   0.38   0.32   0.00   0.00   -0.00      0.00        0.00   -0.00   -0.32    0.00    0.00
 2023 247   138  475.62    0.00    0.00   0.00   0.00   0.00   0.00    0.00   0.00   0.00   0.00   0.00   0.39   0.33   0.00   0.00    0.00      0.00        0.00   -0.00   -0.33    0.00    0.00
 2023 248   139  475.08    0.00    0.00   0.00   0.00   0.00   0.00    0.00   0.00   0.00   0.00   0.00   0.29   0.24   0.00   0.00    0.00      0.00        0.00   -0.00   -0.24    0.00    0.00
 2023 249   140  474.52    0.00    0.00   0.00   0.00   0.00   0.00    0.00   0.00   0.00   0.00   0.00   0.31   0.25   0.00   0.00    0.00      0.00        0.00   -0.00   -0.25    0.00    0.00
 2023 250   141  473.91    0.00    0.00   0.00   0.00   0.00   0.00    0.00   0.00   0.00   0.00   0.00   0.34   0.27   0.00   0.00    0.00      0.00        0.00    0.00   -0.27    0.00    0.00
 2023 251   142  473.30    0.00    0.00   0.00   0.00   0.00   0.00    0.00   0.00   0.00   0.00   0.00   0.34   0.26   0.00   0.00    0.00      0.00        0.00   -0.00   -0.26    0.00    0.00
 2023 252   143  472.71    0.00    0.00   0.00   0.00   0.00   0.00    0.00   0.00   0.00   0.00   0.00   0.34   0.26   0.00   0.00    0.00      0.00        0.00   -0.00   -0.26    0.00    0.00
 2023 253   144  495.85    0.00    0.00   3.50   0.00  26.90   0.00    0.00   0.00   0.00   0.00   0.00   0.15   0.12   0.00   0.00    0.00      0.00       23.40   -0.00   -0.12    0.00    0.00
 2023 254   145  495.66    0.00    0.00   1.55   0.00   0.00   0.00    0.00   1.95   0.00   0.00   0.00   0.00   0.19   0.00   0.00    0.00      0.00        0.00    0.00   -0.19    0.00    0.00
 2023 255   146  495.42    0.00    0.00   0.30   0.00   0.00   0.00    0.00   1.25   0.00   0.00   0.00   0.00   0.25   0.00   0.00   -0.00      0.00       -0.00    0.00   -0.25    0.00    0.00
 2023 256   147  495.10    0.00    0.00   0.06   0.00   0.00   0.00    0.00   0.24   0.00   0.00   0.00   0.08   0.24   0.00   0.00   -0.00      0.00       -0.00    0.00   -0.24    0.00    0.00
 2023 257   148  494.72    0.00    0.00   0.49   0.00   0.50   0.00    0.00   0.05   0.00   0.00   0.00   0.21   0.19   0.00   0.00    0.00      0.00        0.02   -0.00   -0.19    0.00    0.00
 2023 258   149  504.20    0.00    0.00   3.15   0.00  12.70   0.00    0.00   0.39   0.00   0.00   0.00   0.00   0.16   0.00   0.00    0.00      0.00        9.64   -0.00   -0.16    0.00    0.00
 2023 259   150  498.98    0.00    0.00   0.66   0.00   0.00   0.00    0.00   2.49   5.01   0.00   0.00   0.00   0.22   0.00   0.00   -0.00      0.00       -5.01   -0.00   -0.22    0.00    0.00
 2023 260   151  496.83    0.00    0.00   0.13   0.00   0.00   0.00    0.00   0.54   1.94   0.00   0.00   0.00   0.20   0.00   0.00   -0.00      0.00       -1.94   -0.00   -0.20    0.00    0.00
 2023 261   152  495.93    0.00    0.00   0.02   0.00   0.00   0.00    0.00   0.10   0.53   0.00   0.00   0.19   0.19   0.00   0.00    0.00      0.00       -0.53    0.00   -0.19    0.00    0.00
 2023 262   153  495.47    0.00    0.00   0.00   0.00   0.00   0.00    0.00   0.02   0.00   0.00   0.00   0.27   0.19   0.00   0.00   -0.00      0.00        0.00    0.00   -0.19    0.00    0.00
 2023 263   154  497.34    0.00    0.00   3.50   0.00   5.80   0.00    0.00   0.00   0.00   0.00   0.00   0.26   0.17   0.00   0.00    0.00      0.00        2.30   -0.00   -0.17    0.00    0.00
 2023 264   155  496.41    0.00    0.00   1.58   0.00   0.00   0.00    0.00   1.92   0.76   0.00   0.00   0.00   0.16   0.00   0.00    0.00      0.00       -0.76   -0.00   -0.16    0.00    0.00
 2023 265   156  496.16    0.00    0.00   0.38   0.00   0.00   0.00    0.00   1.20   0.15   0.00   0.00   0.00   0.11   0.00   0.00    0.00      0.00       -0.15   -0.00   -0.11    0.00    0.00
 2023 266   157  496.08    0.00    0.00   2.26   0.00   2.30   0.00    0.00   0.31   0.00   0.00   0.00   0.00   0.19   0.00   0.00    0.00      0.00        0.11   -0.00   -0.19    0.00    0.00
 2023 267   158  495.90    0.00    0.00   0.43   0.00   0.00   0.00    0.00   1.82   0.00   0.00   0.00   0.00   0.18   0.00   0.00    0.00      0.00        0.00    0.00   -0.18    0.00    0.00
 2023 268   159  495.73    0.00    0.00   0.08   0.00   0.00   0.00    0.00   0.35   0.00   0.00   0.00   0.00   0.17   0.00   0.00   -0.00      0.00        0.00    0.00   -0.17    0.00    0.00

!     WATER BALANCE PARAMETERS
!     ========================                 --mm--

!     Soil H20 (start) on Year/day 2023/110    425.29
!     Soil H20 (final) on Year/day 2023/268    495.73
!     Effective Irrigation                       0.00
!     Precipitation                            454.30
!     Water added with new mulch                 0.87
!     Net lateral flow                           0.00
!     Drainage                                 147.68
!     Tiledrain flow                             0.00
!     Runoff                                     0.00
!     Mulch evaporation                        104.30
!     Soil Evaporation                          29.94
!     Transpiration                            103.59
!     Total evapotranspiration                 133.54
!     Total potential evapotranspiration       620.35

!     Initial mulch water content                0.87
!     Final mulch water content                  0.08

!     Final Balance                             0.004

