*SOIL ORGANIC N BALANCE

*DSSAT Cropping System Model Ver. 4.8.2.000 -release  APR 04, 2025 15:50:50

*RUN   1        : farm_23                   MZCER048 UNLI2309    1
 MODEL          : MZCER048 - Maize
 EXPERIMENT     : UNLI2309 MZ PIO1366
 DATA PATH      :
 TREATMENT  1   : farm_23                   MZCER048
  
!                 ----- STATE VARS ------   ---- ADDED TODAY ---- REMOVED     DAILY     CUMUL
@YEAR DOY   DAS      HUMN     FON    RESN   ARESN   ASENN AIMMOBN RMINERP      DBAL      CBAL
 2023 109     0  12681.62   0.000   0.000   0.000   0.000   0.000   0.000     0.000     0.000
 2023 110     1  12681.48   0.000  55.000  55.000   0.000   0.000   0.144     0.001     0.001
 2023 111     2  12681.36   0.000  55.000   0.000   0.000   0.000   0.117    -0.000     0.001
 2023 112     3  12681.28   0.000  55.000   0.000   0.000   0.000   0.075    -0.000     0.001
 2023 113     4  12681.26   0.000  55.000   0.000   0.000   0.000   0.025    -0.001     0.000
 2023 114     5  12681.26   0.000  55.000   0.000   0.000   0.000   0.001     0.001     0.001
 2023 115     6  12681.26   0.000  55.000   0.000   0.000   0.000   0.000     0.000     0.001
 2023 116     7  12681.26   0.000  55.000   0.000   0.000   0.000   0.000     0.000     0.001
 2023 117     8  12681.25   0.000  55.000   0.000   0.000   0.000   0.006     0.000     0.001
 2023 118     9  12681.21   0.000  55.000   0.000   0.000   0.000   0.048    -0.000     0.000
 2023 119    10  12681.14   0.000  55.000   0.000   0.000   0.000   0.066    -0.000     0.000
 2023 120    11  12681.05   0.000  55.000   0.000   0.000   0.000   0.084    -0.000     0.000
 2023 121    12  12680.97   0.000  55.000   0.000   0.000   0.000   0.087     0.001     0.001
 2023 122    13  12680.91   0.000  55.000   0.000   0.000   0.000   0.062    -0.000     0.001
 2023 123    14  12680.86   0.000  55.000   0.000   0.000   0.000   0.043    -0.000     0.001
 2023 124    15  12680.78   0.000  55.000   0.000   0.000   0.000   0.084     0.000     0.001
 2023 125    16  12680.65   0.000  55.000   0.000   0.000   0.000   0.129     0.000     0.001
 2023 126    17  12680.46   0.000  55.000   0.000   0.000   0.000   0.190    -0.001     0.001
 2023 127    18  12680.22   0.000  55.000   0.000   0.000   0.000   0.239     0.000     0.001
 2023 128    19  12679.94   0.000  55.000   0.000   0.000   0.000   0.285     0.000     0.001
 2023 129    20  12679.64   0.000  55.000   0.000   0.000   0.000   0.300     0.001     0.002
 2023 130    21  12679.34   0.000  55.000   0.000   0.000   0.000   0.296    -0.001     0.001
 2023 131    22  12679.05   0.000  55.000   0.000   0.000   0.000   0.288     0.002     0.002
 2023 132    23  12678.75   0.000  55.000   0.000   0.000   0.000   0.298    -0.000     0.002
 2023 133    24  12678.47   0.000  55.000   0.000   0.000   0.000   0.287     0.000     0.002
 2023 134    25  12678.18   0.000  55.000   0.000   0.000   0.000   0.290    -0.001     0.001
 2023 135    26  12677.91   0.000  55.000   0.000   0.000   0.000   0.263    -0.000     0.001
 2023 136    27  12677.69   0.000  55.000   0.000   0.000   0.000   0.225     0.000     0.001
 2023 137    28  12677.48   0.000  55.000   0.000   0.000   0.000   0.209     0.000     0.002
 2023 138    29  12677.26   0.000  55.000   0.000   0.000   0.000   0.217    -0.001     0.001
 2023 139    30  12677.05   0.000  55.000   0.000   0.000   0.000   0.214    -0.000     0.001
 2023 140    31  12676.84   0.000  55.000   0.000   0.000   0.000   0.207    -0.000     0.001
 2023 141    32  12676.62   0.000  55.000   0.000   0.000   0.000   0.222     0.000     0.001
 2023 142    33  12676.38   0.000  55.000   0.000   0.000   0.000   0.241    -0.000     0.001
 2023 143    34  12676.12   0.000  55.000   0.000   0.000   0.000   0.260     0.001     0.001
 2023 144    35  12675.84   0.000  55.000   0.000   0.000   0.000   0.274    -0.001     0.000
 2023 145    36  12675.52   0.002  55.000   0.000   0.002   0.000   0.318     0.002     0.002
 2023 146    37  12675.17   0.004  55.000   0.000   0.002   0.000   0.354     0.000     0.003
 2023 147    38  12674.81   0.006  55.000   0.000   0.002   0.000   0.356     0.001     0.004
 2023 148    39  12674.46   0.009  55.000   0.000   0.002   0.000   0.356    -0.000     0.004
 2023 149    40  12674.10   0.012  55.000   0.000   0.003   0.000   0.355     0.000     0.004
 2023 150    41  12673.74   0.015  55.000   0.000   0.003   0.000   0.365     0.000     0.004
 2023 151    42  12673.36   0.019  55.000   0.000   0.004   0.000   0.374     0.001     0.005
 2023 152    43  12672.97   0.024  55.000   0.000   0.005   0.000   0.391     0.000     0.005
 2023 153    44  12672.58   0.029  55.000   0.000   0.005   0.000   0.396    -0.000     0.005
 2023 154    45  12672.17   0.034  55.000   0.000   0.006   0.000   0.402     0.000     0.005
 2023 155    46  12671.79   0.040  55.000   0.000   0.006   0.000   0.386     0.002     0.007
 2023 156    47  12671.41   0.047  55.000   0.000   0.006   0.000   0.381     0.000     0.007
 2023 157    48  12671.02   0.053  55.000   0.000   0.006   0.000   0.384     0.000     0.007
 2023 158    49  12670.64   0.060  55.000   0.000   0.007   0.000   0.387     0.000     0.007
 2023 159    50  12670.24   0.067  55.000   0.000   0.007   0.000   0.396    -0.000     0.007
 2023 160    51  12669.82   0.076  55.000   0.000   0.008   0.000   0.418     0.001     0.009
 2023 161    52  12669.38   0.085  55.000   0.000   0.009   0.000   0.441     0.001     0.010
 2023 162    53  12668.94   0.095  55.000   0.000   0.010   0.000   0.441     0.000     0.010
 2023 163    54  12668.51   0.105  55.000   0.000   0.010   0.000   0.425     0.001     0.011
 2023 164    55  12668.12   0.117  55.000   0.000   0.011   0.000   0.390     0.001     0.013
 2023 165    56  12667.77   0.130  55.000   0.000   0.013   0.000   0.356     0.000     0.013
 2023 166    57  12667.44   0.144  55.000   0.000   0.015   0.000   0.326     0.002     0.015
 2023 167    58  12667.11   0.161  55.000   0.000   0.017   0.000   0.330     0.003     0.018
 2023 168    59  12666.77   0.181  55.000   0.000   0.018   0.000   0.340     0.001     0.019
 2023 169    60  12666.41   0.200  55.000   0.000   0.019   0.000   0.366     0.001     0.020
 2023 170    61  12666.01   0.221  55.000   0.000   0.019   0.000   0.395     0.000     0.020
 2023 171    62  12665.58   0.243  55.000   0.000   0.020   0.000   0.429    -0.000     0.020
 2023 172    63  12665.13   0.266  55.000   0.000   0.020   0.000   0.447     0.001     0.021
 2023 173    64  12664.66   0.290  55.000   0.000   0.021   0.000   0.469     0.001     0.022
 2023 174    65  12664.17   0.315  55.000   0.000   0.021   0.000   0.486    -0.001     0.021
 2023 175    66  12663.67   0.342  55.000   0.000   0.022   0.000   0.492     0.001     0.022
 2023 176    67  12663.18   0.369  55.000   0.000   0.022   0.000   0.481    -0.000     0.022
 2023 177    68  12662.72   0.397  55.000   0.000   0.022   0.000   0.456     0.001     0.023
 2023 178    69  12662.28   0.424  55.000   0.000   0.023   0.000   0.436     0.000     0.023
 2023 179    70  12661.83   0.451  55.000   0.000   0.023   0.000   0.448     0.001     0.024
 2023 180    71  12661.35   0.481  55.000   0.000   0.024   0.000   0.471     0.000     0.024
 2023 181    72  12660.86   0.510  55.000   0.000   0.024   0.000   0.483     0.002     0.026
 2023 182    73  12660.37   0.540  55.000   0.000   0.025   0.000   0.486    -0.001     0.025
 2023 183    74  12659.88   0.571  55.000   0.000   0.025   0.000   0.489     0.001     0.026
 2023 184    75  12659.39   0.602  55.000   0.000   0.025   0.000   0.482    -0.001     0.026
 2023 185    76  12658.91   0.633  55.000   0.000   0.026   0.000   0.476     0.002     0.027
 2023 186    77  12658.43   0.664  55.000   0.000   0.026   0.000   0.469    -0.001     0.026
 2023 187    78  12657.98   0.694  55.000   0.000   0.027   0.000   0.446     0.001     0.027
 2023 188    79  12657.55   0.725  55.000   0.000   0.027   0.000   0.424    -0.000     0.027
 2023 189    80  12657.13   0.756  55.000   0.000   0.027   0.000   0.418     0.001     0.028
 2023 190    81  12656.76   0.787  55.000   0.000   0.027   0.000   0.364     0.000     0.028
 2023 191    82  12656.41   0.818  55.000   0.000   0.028   0.000   0.351    -0.000     0.028
 2023 192    83  12656.00   0.850  55.000   0.000   0.028   0.000   0.405    -0.000     0.027
 2023 193    84  12655.54   0.882  55.000   0.000   0.028   0.000   0.454     0.001     0.028
 2023 194    85  12655.06   0.914  55.000   0.000   0.028   0.000   0.477     0.001     0.029
 2023 195    86  12654.54   0.946  55.000   0.000   0.029   0.000   0.521    -0.000     0.029
 2023 196    87  12654.00   0.978  55.000   0.000   0.029   0.000   0.536     0.001     0.030
 2023 197    88  12653.48   1.010  55.000   0.000   0.029   0.000   0.518    -0.000     0.030
 2023 198    89  12652.96   1.041  55.000   0.000   0.029   0.000   0.520     0.000     0.030
 2023 199    90  12652.45   1.071  55.000   0.000   0.029   0.000   0.508     0.000     0.030
 2023 200    91  12651.94   1.101  55.000   0.000   0.030   0.000   0.506     0.000     0.031
 2023 201    92  12651.42   1.131  55.000   0.000   0.030   0.000   0.520     0.000     0.031
 2023 202    93  12650.91   1.160  55.000   0.000   0.030   0.000   0.514     0.000     0.031
 2023 203    94  12650.42   1.190  55.000   0.000   0.031   0.000   0.492    -0.000     0.031
 2023 204    95  12649.92   1.219  55.000   0.000   0.031   0.000   0.498     0.001     0.032
 2023 205    96  12649.41   1.247  55.000   0.000   0.031   0.000   0.509    -0.001     0.031
 2023 206    97  12648.89   1.275  55.000   0.000   0.031   0.000   0.527     0.001     0.032
 2023 207    98  12648.32   1.303  55.000   0.000   0.032   0.000   0.575     0.001     0.033
 2023 208    99  12647.70   1.330  55.000   0.000   0.032   0.000   0.620    -0.001     0.032
 2023 209   100  12647.06   1.355  55.000   0.000   0.032   0.000   0.655     0.002     0.034
 2023 210   101  12646.39   1.380  55.000   0.000   0.033   0.000   0.671    -0.001     0.033
 2023 211   102  12645.74   1.404  55.000   0.000   0.033   0.000   0.662     0.002     0.035
 2023 212   103  12645.09   1.428  55.000   0.000   0.033   0.000   0.657    -0.001     0.034
 2023 213   104  12644.46   1.452  55.000   0.000   0.034   0.000   0.646     0.001     0.035
 2023 214   105  12643.84   1.475  55.000   0.000   0.034   0.000   0.628    -0.000     0.035
 2023 215   106  12643.22   1.499  55.000   0.000   0.034   0.000   0.626     0.002     0.037
 2023 216   107  12642.61   1.522  55.000   0.000   0.035   0.000   0.621    -0.001     0.036
 2023 217   108  12642.02   1.546  55.000   0.000   0.035   0.000   0.602     0.000     0.036
 2023 218   109  12641.45   1.568  55.000   0.000   0.035   0.000   0.591     0.000     0.037
 2023 219   110  12640.89   1.591  55.000   0.000   0.036   0.000   0.564    -0.000     0.037
 2023 220   111  12640.39   1.615  55.000   0.000   0.036   0.000   0.515     0.000     0.037
 2023 221   112  12639.91   1.640  55.000   0.000   0.036   0.000   0.495     0.000     0.037
 2023 222   113  12639.44   1.665  55.000   0.000   0.037   0.000   0.483    -0.000     0.037
 2023 223   114  12638.96   1.688  55.000   0.000   0.037   0.000   0.490    -0.000     0.037
 2023 224   115  12638.46   1.712  55.000   0.000   0.037   0.000   0.507     0.001     0.038
 2023 225   116  12637.94   1.734  55.000   0.000   0.037   0.000   0.538     0.000     0.038
 2023 226   117  12637.43   1.756  55.000   0.000   0.038   0.000   0.528    -0.001     0.037
 2023 227   118  12636.93   1.779  55.000   0.000   0.038   0.000   0.510     0.001     0.038
 2023 228   119  12636.46   1.802  55.000   0.000   0.038   0.000   0.485     0.001     0.039
 2023 229   120  12635.97   1.825  55.000   0.000   0.038   0.000   0.504     0.000     0.039
 2023 230   121  12635.49   1.848  55.000   0.000   0.039   0.000   0.500     0.001     0.040
 2023 231   122  12634.96   1.870  55.000   0.000   0.039   0.000   0.553     0.000     0.040
 2023 232   123  12634.37   1.889  55.000   0.000   0.039   0.000   0.609    -0.001     0.039
 2023 233   124  12633.73   1.906  55.000   0.000   0.040   0.000   0.654     0.001     0.041
 2023 234   125  12633.08   1.923  55.000   0.000   0.040   0.000   0.680     0.000     0.041
 2023 235   126  12632.37   1.937  55.000   0.000   0.041   0.000   0.736    -0.001     0.040
 2023 236   127  12631.64   1.950  55.000   0.000   0.041   0.000   0.758     0.002     0.042
 2023 237   128  12630.90   1.963  55.000   0.000   0.042   0.000   0.767     0.000     0.042
 2023 238   129  12630.17   1.976  55.000   0.000   0.042   0.000   0.760     0.000     0.043
 2023 239   130  12629.50   1.991  55.000   0.000   0.043   0.000   0.699     0.000     0.043
 2023 240   131  12628.89   2.009  55.000   0.000   0.043   0.000   0.637     0.000     0.043
 2023 241   132  12628.32   2.029  55.000   0.000   0.044   0.000   0.590     0.001     0.044
 2023 242   133  12627.80   2.051  55.000   0.000   0.044   0.000   0.547     0.000     0.044
 2023 243   134  12627.29   2.074  55.000   0.000   0.045   0.000   0.526     0.001     0.045
 2023 244   135  12626.75   2.095  55.000   0.000   0.045   0.000   0.565     0.000     0.045
 2023 245   136  12626.16   2.114  55.000   0.000   0.045   0.000   0.615    -0.000     0.045
 2023 246   137  12625.54   2.131  55.000   0.000   0.046   0.000   0.652     0.000     0.045
 2023 247   138  12624.88   2.147  55.000   0.000   0.046   0.000   0.684     0.000     0.046
 2023 248   139  12624.21   2.161  55.000   0.000   0.046   0.000   0.708     0.000     0.046
 2023 249   140  12623.60   2.179  55.000   0.000   0.047   0.000   0.641     0.001     0.047
 2023 250   141  12623.05   2.200  55.000   0.000   0.047   0.000   0.570     0.001     0.048
 2023 251   142  12622.54   2.222  55.000   0.000   0.047   0.000   0.534    -0.001     0.047
 2023 252   143  12622.08   2.247  55.000   0.000   0.047   0.000   0.489    -0.000     0.047
 2023 253   144  12621.63   2.272  55.000   0.000   0.048   0.000   0.474     0.002     0.049
 2023 254   145  12621.16   2.295  55.000   0.000   0.048   0.000   0.491    -0.001     0.048
 2023 255   146  12620.70   2.316  55.000   0.000   0.048   0.000   0.487    -0.000     0.048
 2023 256   147  12620.26   2.337  55.000   0.000   0.048   0.000   0.462     0.001     0.049
 2023 257   148  12619.84   2.359  55.000   0.000   0.048   0.000   0.454    -0.001     0.048
 2023 258   149  12619.44   2.382  55.000   0.000   0.048   0.000   0.427     0.001     0.049
 2023 259   150  12619.02   2.404  55.000   0.000   0.048   0.000   0.440    -0.002     0.047
 2023 260   151  12618.59   2.425  55.000   0.000   0.048   0.000   0.460     0.001     0.049
 2023 261   152  12618.15   2.444  55.000   0.000   0.048   0.000   0.463     0.001     0.049
 2023 262   153  12617.70   2.462  55.000   0.000   0.048   0.000   0.486    -0.001     0.048
 2023 263   154  12617.23   2.478  55.000   0.000   0.048   0.000   0.497     0.001     0.049
 2023 264   155  12616.76   2.445  55.000   0.000   0.000   0.000   0.507    -0.049    -0.000
 2023 265   156  12616.29   2.412  55.000   0.000   0.000   0.000   0.505     0.000    -0.000
 2023 266   157  12615.82   2.380  55.000   0.000   0.000   0.000   0.502    -0.000    -0.000
 2023 267   158  12615.37   2.350  55.000   0.000   0.000   0.000   0.478     0.001     0.001
 2023 268   159  12614.94   2.322  55.000   0.000   0.000   0.000   0.457    -0.001    -0.001


!                                        INITIAL Year/Doy      FINAL Year/Doy
!                                                2023/110            2023/268
!SOIL N BALANCE                                 -----------kg N/ha-----------

!   Soil Humus N                                 12681.62            12614.94
!   Soil Litter N                                    0.00                2.32
!   N in Surface Residue                             0.00               55.00

!   Added to / Removed from Soil:
!   N in Harvest Residues from Previous Crop         0.00
!   N from Organic Applications                     55.00
!   N from senesced plant matter                     3.50
!   N immobilized                                    0.00
!   N mineralized                                                       67.86

!   Total N balance                              12740.12            12740.12
!   Balance                                                            -0.001
