*SOIL INORGANIC N BALANCE

*DSSAT Cropping System Model Ver. 4.8.2.000 -release  APR 04, 2025 15:50:50

*RUN   1        : farm_23                   MZCER048 UNLI2309    1
 MODEL          : MZCER048 - Maize
 EXPERIMENT     : UNLI2309 MZ PIO1366
 DATA PATH      :
 TREATMENT  1   : farm_23                   MZCER048
  
!               |------------------- STATE VARIABLES -------------------|---- ADDED ---|----------------------------- REMOVED TODAY --------------------------|    DAILY     CUMUL
@YEAR DOY  DAS     NO3     NH4   TUREA   TNGAS  FLOODN  ALGFIX  UNFERT   AFERT  AMINER  RIMMOB    RLCH    RLTD    RNUP    RNRO    RAML   N2OED    N2ED    NOED      DBAL      CBAL
 2023 109    0  14.309   2.385   0.000   0.000   0.000   0.000   0.000     0.0  0.0000  0.0000  0.0000  0.0000  0.0000  0.0000  0.0000  0.0000  0.0000  0.0000    0.0000    0.0000
 2023 110    1  14.599   2.237   0.000   0.001   0.000   0.000   0.000     0.0  0.1436  0.0000  0.0000  0.0000  0.0000  0.0000  0.0000  0.0000  0.0000  0.0000   -0.0000   -0.0000
 2023 111    2  14.856   2.096   0.000   0.002   0.000   0.000   0.000     0.0  0.1171  0.0000  0.0000  0.0000  0.0000  0.0000  0.0000  0.0000  0.0000  0.0000    0.0000    0.0000
 2023 112    3  15.076   1.951   0.000   0.003   0.000   0.000   0.000     0.0  0.0749  0.0000  0.0000  0.0000  0.0000  0.0000  0.0000  0.0000  0.0000  0.0000   -0.0000   -0.0000
 2023 113    4  15.255   1.795   0.000   0.003   0.000   0.000   0.000     0.0  0.0248  0.0000  0.0000  0.0000  0.0000  0.0000  0.0000  0.0000  0.0000  0.0000   -0.0000   -0.0000
 2023 114    5  15.403   1.648   0.000   0.004   0.000   0.000   0.000     0.0  0.0006  0.0000  0.0000  0.0000  0.0000  0.0000  0.0000  0.0000  0.0000  0.0000    0.0000   -0.0000
 2023 115    6  15.531   1.519   0.000   0.004   0.000   0.000   0.000     0.0  0.0000  0.0000  0.0000  0.0000  0.0000  0.0000  0.0000  0.0000  0.0000  0.0000   -0.0000   -0.0000
 2023 116    7  15.649   1.401   0.000   0.005   0.000   0.000   0.000     0.0  0.0000  0.0000  0.0000  0.0000  0.0000  0.0000  0.0000  0.0000  0.0000  0.0000    0.0000   -0.0000
 2023 117    8  15.769   1.287   0.000   0.005   0.000   0.000   0.000     0.0  0.0059  0.0000  0.0000  0.0000  0.0000  0.0000  0.0000  0.0000  0.0000  0.0000    0.0000   -0.0000
 2023 118    9  15.894   1.208   0.000   0.005   0.000   0.000   0.000     0.0  0.0477  0.0000  0.0000  0.0000  0.0000  0.0000  0.0000  0.0000  0.0000  0.0000   -0.0000   -0.0000
 2023 119   10  16.017   1.151   0.000   0.006   0.000   0.000   0.000     0.0  0.0664  0.0000  0.0000  0.0000  0.0000  0.0000  0.0000  0.0000  0.0000  0.0000    0.0000   -0.0000
 2023 120   11  16.139   1.113   0.000   0.006   0.000   0.000   0.000     0.0  0.0839  0.0000  0.0000  0.0000  0.0000  0.0000  0.0000  0.0000  0.0000  0.0000   -0.0000   -0.0000
 2023 121   12  16.258   1.080   0.000   0.006   0.000   0.000   0.000     0.0  0.0867  0.0000  0.0000  0.0000  0.0000  0.0000  0.0000  0.0000  0.0000  0.0000    0.0000    0.0000
 2023 122   13  16.366   1.034   0.000   0.007   0.000   0.000   0.000     0.0  0.0624  0.0000  0.0000  0.0000  0.0000  0.0000  0.0000  0.0000  0.0000  0.0000   -0.0000   -0.0000
 2023 123   14  16.465   0.978   0.000   0.007   0.000   0.000   0.000     0.0  0.0428  0.0000  0.0000  0.0000  0.0000  0.0000  0.0000  0.0000  0.0000  0.0000    0.0000    0.0000
 2023 124   15  16.568   0.959   0.000   0.008   0.000   0.000   0.000     0.0  0.0843  0.0000  0.0000  0.0000  0.0000  0.0000  0.0000  0.0000  0.0000  0.0000   -0.0000   -0.0000
 2023 125   16  16.675   0.979   0.000   0.009   0.000   0.000   0.000     0.0  0.1289  0.0000  0.0000  0.0000  0.0000  0.0000  0.0000  0.0000  0.0000  0.0000   -0.0000   -0.0000
 2023 126   17  16.794   1.050   0.000   0.009   0.000   0.000   0.000     0.0  0.1899  0.0000  0.0000  0.0000  0.0000  0.0000  0.0000  0.0000  0.0000  0.0000   -0.0000   -0.0000
 2023 127   18  16.939   1.143   0.000   0.010   0.000   0.000   0.000     0.0  0.2394  0.0000  0.0000  0.0000  0.0000  0.0000  0.0000  0.0000  0.0000  0.0000    0.0000    0.0000
 2023 128   19  17.119   1.248   0.000   0.011   0.000   0.000   0.000     0.0  0.2853  0.0000  0.0000  0.0000  0.0000  0.0000  0.0000  0.0000  0.0000  0.0001   -0.0000    0.0000
 2023 129   20  17.329   1.338   0.000   0.012   0.000   0.000   0.000     0.0  0.3004  0.0000  0.0000  0.0000  0.0000  0.0000  0.0000  0.0000  0.0000  0.0001    0.0000    0.0000
 2023 130   21  17.554   1.407   0.000   0.013   0.000   0.000   0.000     0.0  0.2960  0.0000  0.0000  0.0000  0.0000  0.0000  0.0000  0.0000  0.0000  0.0001   -0.0000    0.0000
 2023 131   22  17.748   1.494   0.000   0.019   0.000   0.000   0.000     0.0  0.2877  0.0000  0.0000  0.0000  0.0000  0.0000  0.0000  0.0000  0.0000  0.0000   -0.0000   -0.0000
 2023 132   23  17.944   1.590   0.000   0.026   0.000   0.000   0.000     0.0  0.2984  0.0000  0.0000  0.0000  0.0000  0.0000  0.0000  0.0000  0.0000  0.0000    0.0000    0.0000
 2023 133   24  18.137   1.679   0.000   0.031   0.000   0.000   0.000     0.0  0.2871  0.0000  0.0000  0.0000  0.0000  0.0000  0.0000  0.0000  0.0000  0.0000    0.0000    0.0000
 2023 134   25  18.363   1.736   0.000   0.038   0.000   0.000   0.000     0.0  0.2905  0.0000  0.0000  0.0000  0.0000  0.0000  0.0000  0.0000  0.0001  0.0001    0.0000    0.0000
 2023 135   26  18.598   1.758   0.000   0.044   0.000   0.000   0.000     0.0  0.2635  0.0000  0.0000  0.0000  0.0000  0.0000  0.0000  0.0000  0.0002  0.0001    0.0000    0.0000
 2023 136   27  18.443   1.749   0.000   0.048   0.000   0.000   0.000     0.0  0.2250  0.0000  0.3851  0.0000  0.0000  0.0000  0.0000  0.0001  0.0003  0.0001   -0.0000   -0.0000
 2023 137   28  18.643   1.723   0.000   0.050   0.000   0.000   0.000     0.0  0.2092  0.0000  0.0321  0.0000  0.0000  0.0000  0.0000  0.0001  0.0004  0.0001    0.0000   -0.0000
 2023 138   29  18.574   1.700   0.000   0.052   0.000   0.000   0.000     0.0  0.2171  0.0000  0.3060  0.0000  0.0000  0.0000  0.0000  0.0001  0.0005  0.0001    0.0000   -0.0000
 2023 139   30  18.747   1.677   0.000   0.053   0.000   0.000   0.000     0.0  0.2138  0.0000  0.0629  0.0000  0.0000  0.0000  0.0000  0.0001  0.0006  0.0001    0.0000    0.0000
 2023 140   31  18.977   1.653   0.000   0.053   0.000   0.000   0.000     0.0  0.2070  0.0000  0.0000  0.0000  0.0000  0.0000  0.0000  0.0001  0.0007  0.0002   -0.0000   -0.0000
 2023 141   32  19.211   1.639   0.000   0.053   0.000   0.000   0.000     0.0  0.2220  0.0000  0.0000  0.0000  0.0000  0.0000  0.0000  0.0001  0.0008  0.0002    0.0000    0.0000
 2023 142   33  19.457   1.632   0.000   0.054   0.000   0.000   0.000     0.0  0.2409  0.0000  0.0000  0.0000  0.0000  0.0000  0.0000  0.0001  0.0008  0.0002    0.0000    0.0000
 2023 143   34  19.715   1.634   0.000   0.054   0.000   0.000   0.000     0.0  0.2603  0.0000  0.0000  0.0000  0.0000  0.0000  0.0000  0.0001  0.0009  0.0002   -0.0000    0.0000
 2023 144   35  19.984   1.638   0.000   0.054   0.000   0.000   0.000     0.0  0.2744  0.0000  0.0000  0.0000  0.0000  0.0000  0.0000  0.0001  0.0009  0.0002    0.0000    0.0000
 2023 145   36  20.249   1.655   0.000   0.054   0.000   0.000   0.000     0.0  0.3183  0.0000  0.0000  0.0000  0.0336  0.0000  0.0000  0.0001  0.0010  0.0002   -0.0000    0.0000
 2023 146   37  20.471   1.675   0.000   0.055   0.000   0.000   0.000     0.0  0.3537  0.0000  0.0304  0.0000  0.0797  0.0000  0.0000  0.0001  0.0010  0.0002   -0.0000   -0.0000
 2023 147   38  20.533   1.746   0.000   0.057   0.000   0.000   0.000     0.0  0.3561  0.0000  0.0373  0.0000  0.1837  0.0000  0.0000  0.0000  0.0002  0.0000    0.0000    0.0000
 2023 148   39  20.416   1.795   0.000   0.060   0.000   0.000   0.000     0.0  0.3557  0.0000  0.0631  0.0000  0.3569  0.0000  0.0000  0.0001  0.0005  0.0001    0.0000    0.0000
 2023 149   40  20.182   1.878   0.000   0.068   0.000   0.000   0.000     0.0  0.3550  0.0000  0.1115  0.0000  0.3859  0.0000  0.0000  0.0000  0.0002  0.0001   -0.0000    0.0000
 2023 150   41  18.836   1.933   0.000   0.077   0.000   0.000   0.000     0.0  0.3654  0.0000  1.3120  0.0000  0.3358  0.0000  0.0000  0.0001  0.0004  0.0001    0.0000    0.0000
 2023 151   42  18.340   1.938   0.000   0.081   0.000   0.000   0.000     0.0  0.3744  0.0000  0.5245  0.0000  0.3354  0.0000  0.0000  0.0001  0.0008  0.0002   -0.0000    0.0000
 2023 152   43  18.259   1.925   0.000   0.082   0.000   0.000   0.000     0.0  0.3912  0.0000  0.1405  0.0000  0.3416  0.0000  0.0000  0.0002  0.0011  0.0003   -0.0000    0.0000
 2023 153   44  18.208   1.907   0.000   0.082   0.000   0.000   0.000     0.0  0.3958  0.0000  0.0000  0.0000  0.4621  0.0000  0.0000  0.0002  0.0011  0.0003   -0.0000   -0.0000
 2023 154   45  18.181   1.889   0.000   0.082   0.000   0.000   0.000     0.0  0.4021  0.0000  0.0254  0.0000  0.4206  0.0000  0.0000  0.0002  0.0011  0.0003   -0.0000   -0.0000
 2023 155   46  17.579   1.936   0.000   0.085   0.000   0.000   0.000     0.0  0.3862  0.0000  0.6800  0.0000  0.2581  0.0000  0.0000  0.0000  0.0002  0.0001    0.0000   -0.0000
 2023 156   47  17.884   1.938   0.000   0.086   0.000   0.000   0.000     0.0  0.3811  0.0000  0.0290  0.0000  0.0430  0.0000  0.0000  0.0001  0.0007  0.0002    0.0000   -0.0000
 2023 157   48  17.876   1.935   0.000   0.088   0.000   0.000   0.000     0.0  0.3843  0.0000  0.2215  0.0000  0.1708  0.0000  0.0000  0.0002  0.0008  0.0002   -0.0000   -0.0000
 2023 158   49  17.864   1.922   0.000   0.088   0.000   0.000   0.000     0.0  0.3874  0.0000  0.0438  0.0000  0.3673  0.0000  0.0000  0.0002  0.0011  0.0003    0.0000    0.0000
 2023 159   50  17.663   1.902   0.000   0.088   0.000   0.000   0.000     0.0  0.3964  0.0000  0.0000  0.0000  0.6151  0.0000  0.0000  0.0002  0.0012  0.0004   -0.0000   -0.0000
 2023 160   51  17.457   1.878   0.000   0.088   0.000   0.000   0.000     0.0  0.4177  0.0000  0.0000  0.0000  0.6462  0.0000  0.0000  0.0003  0.0012  0.0004    0.0000    0.0000
 2023 161   52  17.572   1.858   0.000   0.088   0.000   0.000   0.000     0.0  0.4412  0.0000  0.0000  0.0000  0.3434  0.0000  0.0000  0.0003  0.0012  0.0004   -0.0000   -0.0000
 2023 162   53  17.714   1.845   0.000   0.088   0.000   0.000   0.000     0.0  0.4406  0.0000  0.0000  0.0000  0.3102  0.0000  0.0000  0.0003  0.0013  0.0005   -0.0000   -0.0000
 2023 163   54  17.592   1.835   0.000   0.088   0.000   0.000   0.000     0.0  0.4250  0.0000  0.0000  0.0000  0.5551  0.0000  0.0000  0.0003  0.0013  0.0005    0.0000   -0.0000
 2023 164   55  17.158   1.827   0.000   0.088   0.000   0.000   0.000     0.0  0.3897  0.0000  0.0000  0.0000  0.8303  0.0000  0.0000  0.0003  0.0013  0.0005    0.0000   -0.0000
 2023 165   56  16.489   1.817   0.000   0.087   0.000   0.000   0.000     0.0  0.3564  0.0000  0.0000  0.0000  1.0333  0.0000  0.0000  0.0003  0.0013  0.0005    0.0000    0.0000
 2023 166   57  15.738   1.803   0.000   0.087   0.000   0.000   0.000     0.0  0.3260  0.0000  0.0000  0.0000  1.0894  0.0000  0.0000  0.0003  0.0013  0.0005   -0.0000   -0.0000
 2023 167   58  15.151   1.793   0.000   0.086   0.000   0.000   0.000     0.0  0.3299  0.0000  0.0000  0.0000  0.9253  0.0000  0.0000  0.0003  0.0013  0.0005    0.0000    0.0000
 2023 168   59  15.216   1.786   0.000   0.085   0.000   0.000   0.000     0.0  0.3403  0.0000  0.0000  0.0000  0.2810  0.0000  0.0000  0.0003  0.0013  0.0005   -0.0000    0.0000
 2023 169   60  15.306   1.785   0.000   0.085   0.000   0.000   0.000     0.0  0.3658  0.0000  0.0000  0.0000  0.2756  0.0000  0.0000  0.0003  0.0013  0.0006    0.0000    0.0000
 2023 170   61  15.405   1.787   0.000   0.084   0.000   0.000   0.000     0.0  0.3952  0.0000  0.0000  0.0000  0.2923  0.0000  0.0000  0.0003  0.0013  0.0006    0.0000    0.0000
 2023 171   62  15.516   1.789   0.000   0.083   0.000   0.000   0.000     0.0  0.4293  0.0000  0.0000  0.0000  0.3143  0.0000  0.0000  0.0003  0.0013  0.0006   -0.0000    0.0000
 2023 172   63  15.617   1.791   0.000   0.083   0.000   0.000   0.000     0.0  0.4468  0.0000  0.0000  0.0000  0.3419  0.0000  0.0000  0.0003  0.0013  0.0006    0.0000    0.0000
 2023 173   64  15.729   1.791   0.000   0.083   0.000   0.000   0.000     0.0  0.4691  0.0000  0.0000  0.0000  0.3557  0.0000  0.0000  0.0003  0.0013  0.0006    0.0000    0.0000
 2023 174   65  15.750   1.834   0.000   0.084   0.000   0.000   0.000     0.0  0.4859  0.0000  0.0000  0.0000  0.4202  0.0000  0.0000  0.0001  0.0003  0.0001    0.0000    0.0000
 2023 175   66  15.855   1.873   0.000   0.085   0.000   0.000   0.000     0.0  0.4924  0.0000  0.0000  0.0000  0.3467  0.0000  0.0000  0.0001  0.0003  0.0001   -0.0000    0.0000
 2023 176   67  15.843   1.888   0.000   0.085   0.000   0.000   0.000     0.0  0.4812  0.0000  0.1326  0.0000  0.3433  0.0000  0.0000  0.0002  0.0008  0.0004    0.0000    0.0000
 2023 177   68  15.960   1.883   0.000   0.085   0.000   0.000   0.000     0.0  0.4559  0.0000  0.0285  0.0000  0.3139  0.0000  0.0000  0.0003  0.0012  0.0006   -0.0000    0.0000
 2023 178   69  16.053   1.863   0.000   0.084   0.000   0.000   0.000     0.0  0.4365  0.0000  0.0000  0.0000  0.3613  0.0000  0.0000  0.0004  0.0014  0.0007   -0.0000    0.0000
 2023 179   70  16.140   1.843   0.000   0.084   0.000   0.000   0.000     0.0  0.4481  0.0000  0.0000  0.0000  0.3789  0.0000  0.0000  0.0004  0.0014  0.0007    0.0000    0.0000
 2023 180   71  16.236   1.826   0.000   0.083   0.000   0.000   0.000     0.0  0.4707  0.0000  0.0000  0.0000  0.3902  0.0000  0.0000  0.0004  0.0014  0.0007   -0.0000    0.0000
 2023 181   72  16.318   1.815   0.000   0.083   0.000   0.000   0.000     0.0  0.4834  0.0000  0.0000  0.0000  0.4102  0.0000  0.0000  0.0004  0.0012  0.0007    0.0000    0.0000
 2023 182   73  16.331   1.850   0.000   0.084   0.000   0.000   0.000     0.0  0.4863  0.0000  0.0000  0.0000  0.4369  0.0000  0.0000  0.0001  0.0003  0.0002    0.0000    0.0000
 2023 183   74  16.353   1.867   0.000   0.085   0.000   0.000   0.000     0.0  0.4889  0.0000  0.0806  0.0000  0.3673  0.0000  0.0000  0.0003  0.0008  0.0004   -0.0000    0.0000
 2023 184   75  16.463   1.863   0.000   0.084   0.000   0.000   0.000     0.0  0.4823  0.0000  0.0073  0.0000  0.3661  0.0000  0.0000  0.0004  0.0012  0.0007    0.0000    0.0000
 2023 185   76  16.548   1.840   0.000   0.084   0.000   0.000   0.000     0.0  0.4765  0.0000  0.0000  0.0000  0.4137  0.0000  0.0000  0.0005  0.0014  0.0008   -0.0000    0.0000
 2023 186   77  16.596   1.827   0.000   0.083   0.000   0.000   0.000     0.0  0.4688  0.0000  0.0000  0.0000  0.4307  0.0000  0.0000  0.0004  0.0013  0.0008   -0.0000   -0.0000
 2023 187   78  16.630   1.825   0.000   0.082   0.000   0.000   0.000     0.0  0.4464  0.0000  0.0000  0.0000  0.4134  0.0000  0.0000  0.0004  0.0013  0.0008   -0.0000   -0.0000
 2023 188   79  16.622   1.856   0.000   0.083   0.000   0.000   0.000     0.0  0.4240  0.0000  0.0000  0.0000  0.3991  0.0000  0.0000  0.0001  0.0003  0.0002   -0.0000   -0.0000
 2023 189   80  16.615   1.891   0.000   0.084   0.000   0.000   0.000     0.0  0.4184  0.0000  0.0356  0.0000  0.3526  0.0000  0.0000  0.0001  0.0003  0.0002    0.0000   -0.0000
 2023 190   81  16.246   1.903   0.000   0.084   0.000   0.000   0.000     0.0  0.3643  0.0000  0.4136  0.0000  0.3072  0.0000  0.0000  0.0003  0.0007  0.0005    0.0000    0.0000
 2023 191   82  16.409   1.892   0.000   0.084   0.000   0.000   0.000     0.0  0.3514  0.0000  0.0000  0.0000  0.1975  0.0000  0.0000  0.0004  0.0011  0.0008   -0.0000   -0.0000
 2023 192   83  16.315   1.897   0.000   0.085   0.000   0.000   0.000     0.0  0.4052  0.0000  0.1834  0.0000  0.3088  0.0000  0.0000  0.0002  0.0007  0.0004    0.0000   -0.0000
 2023 193   84  16.456   1.888   0.000   0.084   0.000   0.000   0.000     0.0  0.4544  0.0000  0.0206  0.0000  0.2996  0.0000  0.0000  0.0004  0.0011  0.0008   -0.0000   -0.0000
 2023 194   85  16.563   1.862   0.000   0.084   0.000   0.000   0.000     0.0  0.4768  0.0000  0.0000  0.0000  0.3931  0.0000  0.0000  0.0005  0.0013  0.0009   -0.0000   -0.0000
 2023 195   86  16.560   1.893   0.000   0.086   0.000   0.000   0.000     0.0  0.5213  0.0000  0.0382  0.0000  0.4532  0.0000  0.0000  0.0001  0.0003  0.0002    0.0000    0.0000
 2023 196   87  15.822   1.944   0.000   0.087   0.000   0.000   0.000     0.0  0.5358  0.0000  0.7986  0.0000  0.4212  0.0000  0.0000  0.0001  0.0003  0.0002    0.0000    0.0000
 2023 197   88  16.079   1.937   0.000   0.088   0.000   0.000   0.000     0.0  0.5178  0.0000  0.0392  0.0000  0.2268  0.0000  0.0000  0.0003  0.0009  0.0006    0.0000    0.0000
 2023 198   89  16.048   1.920   0.000   0.087   0.000   0.000   0.000     0.0  0.5198  0.0000  0.1639  0.0000  0.4015  0.0000  0.0000  0.0005  0.0013  0.0009   -0.0000    0.0000
 2023 199   90  16.154   1.897   0.000   0.087   0.000   0.000   0.000     0.0  0.5078  0.0000  0.0061  0.0000  0.4165  0.0000  0.0000  0.0005  0.0014  0.0010    0.0000    0.0000
 2023 200   91  16.245   1.864   0.000   0.086   0.000   0.000   0.000     0.0  0.5064  0.0000  0.0000  0.0000  0.4468  0.0000  0.0000  0.0005  0.0013  0.0010    0.0000    0.0000
 2023 201   92  16.332   1.838   0.000   0.086   0.000   0.000   0.000     0.0  0.5200  0.0000  0.0000  0.0000  0.4557  0.0000  0.0000  0.0005  0.0012  0.0010   -0.0000    0.0000
 2023 202   93  16.391   1.833   0.000   0.085   0.000   0.000   0.000     0.0  0.5136  0.0000  0.0000  0.0000  0.4585  0.0000  0.0000  0.0005  0.0010  0.0009   -0.0000    0.0000
 2023 203   94  16.453   1.826   0.000   0.085   0.000   0.000   0.000     0.0  0.4920  0.0000  0.0000  0.0000  0.4335  0.0000  0.0000  0.0005  0.0011  0.0009    0.0000    0.0000
 2023 204   95  16.509   1.846   0.000   0.086   0.000   0.000   0.000     0.0  0.4976  0.0000  0.0000  0.0000  0.4203  0.0000  0.0000  0.0003  0.0005  0.0005   -0.0000    0.0000
 2023 205   96  16.605   1.856   0.000   0.086   0.000   0.000   0.000     0.0  0.5088  0.0000  0.0000  0.0000  0.4004  0.0000  0.0000  0.0004  0.0008  0.0007   -0.0000    0.0000
 2023 206   97  16.713   1.854   0.000   0.086   0.000   0.000   0.000     0.0  0.5268  0.0000  0.0000  0.0000  0.4193  0.0000  0.0000  0.0005  0.0010  0.0009    0.0000    0.0000
 2023 207   98  16.874   1.820   0.000   0.086   0.000   0.000   0.000     0.0  0.5753  0.0000  0.0000  0.0000  0.4451  0.0000  0.0000  0.0006  0.0010  0.0010   -0.0000    0.0000
 2023 208   99  17.017   1.781   0.000   0.086   0.000   0.000   0.000     0.0  0.6205  0.0000  0.0000  0.0000  0.5141  0.0000  0.0000  0.0006  0.0010  0.0010   -0.0000    0.0000
 2023 209  100  17.155   1.742   0.000   0.086   0.000   0.000   0.000     0.0  0.6552  0.0000  0.0000  0.0000  0.5531  0.0000  0.0000  0.0006  0.0009  0.0010    0.0000    0.0000
 2023 210  101  17.273   1.713   0.000   0.087   0.000   0.000   0.000     0.0  0.6710  0.0000  0.0000  0.0000  0.5792  0.0000  0.0000  0.0006  0.0009  0.0010   -0.0000   -0.0000
 2023 211  102  17.362   1.702   0.000   0.087   0.000   0.000   0.000     0.0  0.6620  0.0000  0.0000  0.0000  0.5818  0.0000  0.0000  0.0006  0.0008  0.0010    0.0000    0.0000
 2023 212  103  17.461   1.699   0.000   0.087   0.000   0.000   0.000     0.0  0.6571  0.0000  0.0000  0.0000  0.5577  0.0000  0.0000  0.0006  0.0008  0.0010   -0.0000   -0.0000
 2023 213  104  17.554   1.703   0.000   0.088   0.000   0.000   0.000     0.0  0.6460  0.0000  0.0000  0.0000  0.5462  0.0000  0.0000  0.0005  0.0008  0.0010    0.0000   -0.0000
 2023 214  105  17.639   1.713   0.000   0.088   0.000   0.000   0.000     0.0  0.6282  0.0000  0.0000  0.0000  0.5310  0.0000  0.0000  0.0005  0.0008  0.0010   -0.0000   -0.0000
 2023 215  106  17.743   1.721   0.000   0.088   0.000   0.000   0.000     0.0  0.6257  0.0000  0.0000  0.0000  0.5114  0.0000  0.0000  0.0005  0.0007  0.0010    0.0000    0.0000
 2023 216  107  17.796   1.766   0.000   0.090   0.000   0.000   0.000     0.0  0.6207  0.0000  0.0000  0.0000  0.5203  0.0000  0.0000  0.0001  0.0002  0.0003   -0.0000    0.0000
 2023 217  108  17.335   1.852   0.000   0.091   0.000   0.000   0.000     0.0  0.6023  0.0000  0.4622  0.0000  0.5125  0.0000  0.0000  0.0001  0.0002  0.0002    0.0000    0.0000
 2023 218  109  17.300   1.874   0.000   0.092   0.000   0.000   0.000     0.0  0.5910  0.0000  0.2898  0.0000  0.3128  0.0000  0.0000  0.0003  0.0004  0.0007    0.0000    0.0000
 2023 219  110  17.467   1.878   0.000   0.093   0.000   0.000   0.000     0.0  0.5638  0.0000  0.0000  0.0000  0.3895  0.0000  0.0000  0.0005  0.0006  0.0009    0.0000    0.0000
 2023 220  111  17.388   1.932   0.000   0.096   0.000   0.000   0.000     0.0  0.5154  0.0000  0.0506  0.0000  0.4868  0.0000  0.0000  0.0001  0.0002  0.0002    0.0000    0.0000
 2023 221  112  17.438   1.963   0.000   0.098   0.000   0.000   0.000     0.0  0.4954  0.0000  0.0654  0.0000  0.3456  0.0000  0.0000  0.0003  0.0004  0.0006   -0.0000    0.0000
 2023 222  113  16.882   1.976   0.000   0.099   0.000   0.000   0.000     0.0  0.4833  0.0000  0.6894  0.0000  0.3332  0.0000  0.0000  0.0005  0.0007  0.0009   -0.0000    0.0000
 2023 223  114  16.888   1.967   0.000   0.099   0.000   0.000   0.000     0.0  0.4905  0.0000  0.1875  0.0000  0.3037  0.0000  0.0000  0.0006  0.0008  0.0010   -0.0000    0.0000
 2023 224  115  17.008   1.949   0.000   0.099   0.000   0.000   0.000     0.0  0.5071  0.0000  0.0115  0.0000  0.3916  0.0000  0.0000  0.0006  0.0009  0.0011    0.0000    0.0000
 2023 225  116  17.129   1.923   0.000   0.099   0.000   0.000   0.000     0.0  0.5383  0.0000  0.0000  0.0000  0.4410  0.0000  0.0000  0.0006  0.0008  0.0011   -0.0000    0.0000
 2023 226  117  17.199   1.903   0.000   0.098   0.000   0.000   0.000     0.0  0.5277  0.0000  0.0000  0.0000  0.4751  0.0000  0.0000  0.0006  0.0008  0.0011   -0.0000    0.0000
 2023 227  118  17.262   1.887   0.000   0.098   0.000   0.000   0.000     0.0  0.5101  0.0000  0.0000  0.0000  0.4611  0.0000  0.0000  0.0006  0.0008  0.0011   -0.0000    0.0000
 2023 228  119  17.309   1.880   0.000   0.098   0.000   0.000   0.000     0.0  0.4850  0.0000  0.0000  0.0000  0.4436  0.0000  0.0000  0.0006  0.0008  0.0011    0.0000    0.0000
 2023 229  120  17.401   1.872   0.000   0.098   0.000   0.000   0.000     0.0  0.5042  0.0000  0.0000  0.0000  0.4174  0.0000  0.0000  0.0006  0.0008  0.0011   -0.0000   -0.0000
 2023 230  121  17.470   1.867   0.000   0.097   0.000   0.000   0.000     0.0  0.5002  0.0000  0.0000  0.0000  0.4338  0.0000  0.0000  0.0006  0.0008  0.0011    0.0000   -0.0000
 2023 231  122  17.605   1.855   0.000   0.097   0.000   0.000   0.000     0.0  0.5529  0.0000  0.0000  0.0000  0.4275  0.0000  0.0000  0.0006  0.0008  0.0011   -0.0000   -0.0000
 2023 232  123  17.760   1.831   0.000   0.097   0.000   0.000   0.000     0.0  0.6092  0.0000  0.0000  0.0000  0.4759  0.0000  0.0000  0.0006  0.0007  0.0011    0.0000   -0.0000
 2023 233  124  17.912   1.797   0.000   0.098   0.000   0.000   0.000     0.0  0.6540  0.0000  0.0000  0.0000  0.5326  0.0000  0.0000  0.0006  0.0007  0.0012   -0.0000   -0.0000
 2023 234  125  18.045   1.765   0.000   0.098   0.000   0.000   0.000     0.0  0.6796  0.0000  0.0000  0.0000  0.5754  0.0000  0.0000  0.0006  0.0007  0.0012   -0.0000   -0.0000
 2023 235  126  18.229   1.715   0.000   0.099   0.000   0.000   0.000     0.0  0.7365  0.0000  0.0000  0.0000  0.5994  0.0000  0.0000  0.0006  0.0007  0.0012   -0.0000   -0.0000
 2023 236  127  18.357   1.675   0.000   0.100   0.000   0.000   0.000     0.0  0.7576  0.0000  0.0000  0.0000  0.6655  0.0000  0.0000  0.0006  0.0007  0.0012    0.0000   -0.0000
 2023 237  128  18.471   1.650   0.000   0.101   0.000   0.000   0.000     0.0  0.7670  0.0000  0.0000  0.0000  0.6755  0.0000  0.0000  0.0006  0.0007  0.0012    0.0000   -0.0000
 2023 238  129  18.562   1.642   0.000   0.102   0.000   0.000   0.000     0.0  0.7599  0.0000  0.0000  0.0000  0.6736  0.0000  0.0000  0.0006  0.0007  0.0012   -0.0000   -0.0000
 2023 239  130  18.577   1.670   0.000   0.102   0.000   0.000   0.000     0.0  0.6987  0.0000  0.0000  0.0000  0.6526  0.0000  0.0000  0.0006  0.0007  0.0012    0.0000   -0.0000
 2023 240  131  18.599   1.708   0.000   0.102   0.000   0.000   0.000     0.0  0.6369  0.0000  0.0000  0.0000  0.5743  0.0000  0.0000  0.0006  0.0007  0.0012   -0.0000   -0.0000
 2023 241  132  18.634   1.744   0.000   0.102   0.000   0.000   0.000     0.0  0.5899  0.0000  0.0000  0.0000  0.5160  0.0000  0.0000  0.0006  0.0006  0.0012    0.0000   -0.0000
 2023 242  133  18.666   1.776   0.000   0.102   0.000   0.000   0.000     0.0  0.5468  0.0000  0.0000  0.0000  0.4809  0.0000  0.0000  0.0006  0.0006  0.0012   -0.0000   -0.0000
 2023 243  134  18.717   1.800   0.000   0.102   0.000   0.000   0.000     0.0  0.5256  0.0000  0.0000  0.0000  0.4482  0.0000  0.0000  0.0006  0.0006  0.0012    0.0000   -0.0000
 2023 244  135  18.831   1.812   0.000   0.102   0.000   0.000   0.000     0.0  0.5654  0.0000  0.0000  0.0000  0.4371  0.0000  0.0000  0.0006  0.0006  0.0012    0.0000   -0.0000
 2023 245  136  18.972   1.806   0.000   0.102   0.000   0.000   0.000     0.0  0.6148  0.0000  0.0000  0.0000  0.4769  0.0000  0.0000  0.0006  0.0006  0.0012    0.0000   -0.0000
 2023 246  137  19.106   1.789   0.000   0.103   0.000   0.000   0.000     0.0  0.6521  0.0000  0.0000  0.0000  0.5318  0.0000  0.0000  0.0006  0.0006  0.0012    0.0000   -0.0000
 2023 247  138  19.243   1.763   0.000   0.104   0.000   0.000   0.000     0.0  0.6844  0.0000  0.0000  0.0000  0.5713  0.0000  0.0000  0.0006  0.0006  0.0012   -0.0000   -0.0000
 2023 248  139  19.372   1.734   0.000   0.104   0.000   0.000   0.000     0.0  0.7083  0.0000  0.0000  0.0000  0.6045  0.0000  0.0000  0.0006  0.0006  0.0012   -0.0000   -0.0000
 2023 249  140  19.373   1.746   0.000   0.105   0.000   0.000   0.000     0.0  0.6408  0.0000  0.0000  0.0000  0.6259  0.0000  0.0000  0.0006  0.0006  0.0012    0.0000   -0.0000
 2023 250  141  19.378   1.771   0.000   0.105   0.000   0.000   0.000     0.0  0.5702  0.0000  0.0000  0.0000  0.5374  0.0000  0.0000  0.0006  0.0006  0.0012    0.0000   -0.0000
 2023 251  142  19.417   1.793   0.000   0.105   0.000   0.000   0.000     0.0  0.5337  0.0000  0.0000  0.0000  0.4701  0.0000  0.0000  0.0006  0.0006  0.0012    0.0000   -0.0000
 2023 252  143  19.441   1.812   0.000   0.104   0.000   0.000   0.000     0.0  0.4886  0.0000  0.0000  0.0000  0.4436  0.0000  0.0000  0.0006  0.0006  0.0012    0.0000   -0.0000
 2023 253  144  19.485   1.826   0.000   0.107   0.000   0.000   0.000     0.0  0.4739  0.0000  0.0000  0.0000  0.4107  0.0000  0.0000  0.0006  0.0006  0.0013   -0.0000   -0.0000
 2023 254  145  19.465   1.875   0.000   0.110   0.000   0.000   0.000     0.0  0.4913  0.0000  0.0000  0.0000  0.4587  0.0000  0.0000  0.0001  0.0001  0.0002    0.0000   -0.0000
 2023 255  146  19.539   1.905   0.000   0.112   0.000   0.000   0.000     0.0  0.4871  0.0000  0.0000  0.0000  0.3797  0.0000  0.0000  0.0004  0.0003  0.0007    0.0000   -0.0000
 2023 256  147  19.598   1.923   0.000   0.113   0.000   0.000   0.000     0.0  0.4617  0.0000  0.0000  0.0000  0.3820  0.0000  0.0000  0.0005  0.0005  0.0011   -0.0000   -0.0000
 2023 257  148  19.671   1.932   0.000   0.113   0.000   0.000   0.000     0.0  0.4535  0.0000  0.0000  0.0000  0.3685  0.0000  0.0000  0.0006  0.0006  0.0013    0.0000   -0.0000
 2023 258  149  19.721   1.935   0.000   0.113   0.000   0.000   0.000     0.0  0.4272  0.0000  0.0000  0.0000  0.3719  0.0000  0.0000  0.0006  0.0006  0.0014   -0.0000   -0.0000
 2023 259  150  19.257   1.963   0.000   0.115   0.000   0.000   0.000     0.0  0.4399  0.0000  0.4853  0.0000  0.3875  0.0000  0.0000  0.0001  0.0001  0.0003   -0.0000   -0.0000
 2023 260  151  19.222   1.976   0.000   0.115   0.000   0.000   0.000     0.0  0.4603  0.0000  0.1887  0.0000  0.2921  0.0000  0.0000  0.0004  0.0004  0.0009    0.0000   -0.0000
 2023 261  152  19.276   1.981   0.000   0.115   0.000   0.000   0.000     0.0  0.4628  0.0000  0.0517  0.0000  0.3499  0.0000  0.0000  0.0006  0.0006  0.0012   -0.0000   -0.0000
 2023 262  153  19.367   1.982   0.000   0.114   0.000   0.000   0.000     0.0  0.4861  0.0000  0.0000  0.0000  0.3910  0.0000  0.0000  0.0007  0.0007  0.0015   -0.0000   -0.0000
 2023 263  154  19.445   1.981   0.000   0.114   0.000   0.000   0.000     0.0  0.4974  0.0000  0.0000  0.0000  0.4193  0.0000  0.0000  0.0007  0.0007  0.0015    0.0000   -0.0000
 2023 264  155  19.869   1.986   0.000   0.114   0.000   0.000   0.000     0.0  0.5070  0.0000  0.0755  0.0000  0.0000  0.0000  0.0000  0.0005  0.0005  0.0012    0.0000   -0.0000
 2023 265  156  20.355   1.987   0.000   0.114   0.000   0.000   0.000     0.0  0.5050  0.0000  0.0151  0.0000  0.0000  0.0000  0.0000  0.0006  0.0006  0.0014   -0.0000   -0.0000
 2023 266  157  20.854   1.988   0.000   0.113   0.000   0.000   0.000     0.0  0.5019  0.0000  0.0000  0.0000  0.0000  0.0000  0.0000  0.0006  0.0007  0.0014   -0.0000   -0.0000
 2023 267  158  21.328   1.989   0.000   0.113   0.000   0.000   0.000     0.0  0.4776  0.0000  0.0000  0.0000  0.0000  0.0000  0.0000  0.0006  0.0007  0.0014   -0.0000   -0.0000
 2023 268  159  21.781   1.990   0.000   0.113   0.000   0.000   0.000     0.0  0.4566  0.0000  0.0000  0.0000  0.0000  0.0000  0.0000  0.0006  0.0007  0.0014    0.0000   -0.0000


!SOIL INORGANIC N BALANCE                         Initial               Final
!                                                Year/Doy            Year/Doy
!                                                2023/110            2023/268
!                                               (kg[N]/ha)          (kg[N]/ha)
! Soil N state variables:
!   Soil NO3                                        14.31               21.78
!   Soil NH4                                         2.38                1.99
!   Soil Urea                                        0.00                0.00
!   Soil N gases                                     0.00                0.11
!   Unreleased fert N                                                    0.00

! N additions:
!   Fertilizer N                                     0.00
!   Mineralized N                                   67.86

! N subtractions:
!   N immobilized                                                        0.00
!   N leached                                                            8.53
!   N loss to tile drainage                                              0.00
!   N Uptake From Soil                                                  51.88
!   NH3 loss                                                             0.00
!   N2O loss                                                             0.05
!   N2 loss                                                              0.11
!   NO loss                                                              0.10

!   Total N balance                                 84.55               84.55
!   Balance                                                            -0.000
