*Soil Carbon Balance

*DSSAT Cropping System Model Ver. 4.8.2.000 -release  JAN 10, 2025 06:19:03

*RUN   1        : silt_loam_13in_irr        MZCER048 UNLI2201    1
 MODEL          : MZCER048 - Maize
 EXPERIMENT     : UNLI2201 MZ IRRIGATED MAIZE PRODUCTION
 DATA PATH      :
 TREATMENT  1   : silt_loam_13in_irr        MZCER048
  

!                                                 Initial               Final
!                                                Year/DOY            Year/DOY
!                                                2022-120            2022-120
! SOIL C BALANCE                                 --------- kg[C]/ha ---------
!  SOIL & SURFACE ORGANIC C
!   Soil Organic C                              148717.91           148144.83
!   Surface Organic C                                0.00                0.00
!   Soil Litter C                                    0.00              137.31
!   Surface Litter C                                 0.00                0.00
!   Soil methane C stored                            0.00                0.00
!                                                --------            --------
!   Total C in Soil and Surface Layers          148717.91           148282.14
!  ADDITIONS AND REMOVALS:
!   C in Harvest Residues from Previous              0.00
!   C from Organic Applications                      0.00
!   C in returned senesced material                186.97
!   CO2-C emitted                                  622.71
!   CH4-C emitted                                    0.00
!   CH4-C leached                                    0.00
!   CH4-C plant uptake                               0.00
!                                                --------            --------
! TOTAL C BALANCE                               148904.88           148904.84
!   Balance                                                            -0.027
