*RUN-TIME ERRORS OUTPUT FILE



*DSSAT Cropping System Model Ver. 4.8.2.000 -release  APR 04, 2025 02:37:16

*RUN   1        : farm_23                   MZCER048 UNLI2309    1
 MODEL          : MZCER048 - Maize
 EXPERIMENT     : UNLI2309 MZ PIO1366
 DATA PATH      :
 TREATMENT  1   : farm_23                   MZCER048
  
UNLI2309.MZX, Trt    0
 
 File not found.  Please check soil profile name or create file.                
  
File: UN.SOL   Line:     0   Error key: IPSOIL

Additional information may be available in WARNING.OUT file.
