*Soil Carbon Balance

*DSSAT Cropping System Model Ver. 4.8.2.000 -release  FEB 07, 2025 20:08:35

*RUN   1        : silt_loam_13in_irr        MZCER048 UNLI2201    1
 MODEL          : MZCER048 - Maize
 EXPERIMENT     : UNLI2201 MZ IRRIGATED MAIZE PRODUCTION
 DATA PATH      :
 TREATMENT  1   : silt_loam_13in_irr        MZCER048
  

!                                                 Initial               Final
!                                                Year/DOY            Year/DOY
!                                                2022-120            2022-120
! SOIL C BALANCE                                 --------- kg[C]/ha ---------
!  SOIL & SURFACE ORGANIC C
!   Soil Organic C                              148717.91           148122.53
!   Surface Organic C                                0.00                0.00
!   Soil Litter C                                    0.00              109.26
!   Surface Litter C                                 0.00                0.00
!   Soil methane C stored                            0.00                0.00
!                                                --------            --------
!   Total C in Soil and Surface Layers          148717.91           148231.78
!  ADDITIONS AND REMOVALS:
!   C in Harvest Residues from Previous              0.00
!   C from Organic Applications                      0.00
!   C in returned senesced material                153.29
!   CO2-C emitted                                  639.42
!   CH4-C emitted                                    0.00
!   CH4-C leached                                    0.00
!   CH4-C plant uptake                               0.00
!                                                --------            --------
! TOTAL C BALANCE                               148871.20           148871.20
!   Balance                                                             0.004
