*SOIL-PLANT-ATMOSPHERE MODULE OUTPUT FILE

*DSSAT Cropping System Model Ver. 4.8.2.000 -release  APR 04, 2025 03:03:53

*RUN   1        : farm_23                   MZCER048 UNLI2309    1
 MODEL          : MZCER048 - Maize
 EXPERIMENT     : UNLI2309 MZ PIO1366
 DATA PATH      :
 TREATMENT  1   : farm_23                   MZCER048
  
@YEAR DOY   DAS   SRAA  TMAXA  TMINA    REFA    EOAA    EOPA    EOSA    ETAA    EPAA    ESAA    EFAA    EMAA    EOAC    ETAC    EPAC    ESAC    EFAC    EMAC    KCAA    KBSA    KEAA
 2023 110     1  18.50  12.10   1.70   1.616   1.945   0.000   1.945   0.721   0.000   0.143   0.000   0.578    1.95    0.72    0.00    0.14    0.00    0.58   0.446   0.000   0.446 
 2023 111     2  24.00   9.80  -1.60   1.453   1.751   0.000   1.751   0.240   0.000   0.000   0.000   0.240    3.70    0.96    0.00    0.14    0.00    0.82   0.165   0.000   0.165 
 2023 112     3  24.60   8.50  -5.20   1.377   1.660   0.000   1.660   0.753   0.000   0.000   0.000   0.753    5.36    1.71    0.00    0.14    0.00    1.57   0.547   0.000   0.547 
 2023 113     4  23.60  14.20  -9.30   1.316   1.586   0.000   1.586   0.179   0.000   0.034   0.000   0.145    6.94    1.89    0.00    0.18    0.00    1.72   0.136   0.000   0.136 
 2023 114     5  19.50  19.10  -4.10   1.384   1.668   0.000   1.668   0.188   0.000   0.160   0.000   0.028    8.61    2.08    0.00    0.34    0.00    1.74   0.136   0.000   0.136 
 2023 115     6  10.90  12.50   1.60   1.085   1.302   0.000   1.302   0.147   0.000   0.141   0.000   0.005    9.91    2.23    0.00    0.48    0.00    1.75   0.135   0.000   0.135 
 2023 116     7  16.80  17.10   5.40   1.474   1.773   0.000   1.773   0.200   0.000   0.199   0.000   0.001   11.69    2.43    0.00    0.68    0.00    1.75   0.136   0.000   0.136 
 2023 117     8  14.90  21.00   4.10   1.455   1.753   0.000   1.753   0.198   0.000   0.197   0.000   0.000   13.44    2.63    0.00    0.88    0.00    1.75   0.136   0.000   0.136 
 2023 118     9  12.80  11.90   0.10   1.165   1.402   0.000   1.402   0.158   0.000   0.158   0.000   0.000   14.84    2.78    0.00    1.03    0.00    1.75   0.136   0.000   0.136 
 2023 119    10  26.00  20.40   0.80   1.831   2.207   0.000   2.207   0.249   0.000   0.249   0.000   0.000   17.05    3.03    0.00    1.28    0.00    1.75   0.136   0.000   0.136 
 2023 120    11  26.80  15.10  -0.10   1.709   2.060   0.000   2.060   0.232   0.000   0.232   0.000   0.000   19.11    3.26    0.00    1.51    0.00    1.75   0.136   0.000   0.136 
 2023 121    12  27.20  18.90  -5.30   1.659   2.000   0.000   2.000   0.225   0.000   0.225   0.000   0.000   21.11    3.49    0.00    1.74    0.00    1.75   0.136   0.000   0.136 
 2023 122    13  27.40  19.70  -2.60   1.746   2.105   0.000   2.105   0.237   0.000   0.237   0.000   0.000   23.21    3.73    0.00    1.98    0.00    1.75   0.136   0.000   0.136 
 2023 123    14  24.90  25.60   1.90   1.811   2.183   0.000   2.183   0.246   0.000   0.246   0.000   0.000   25.40    3.97    0.00    2.22    0.00    1.75   0.136   0.000   0.136 
 2023 124    15  24.30  27.60   9.50   2.220   2.677   0.000   2.677   0.302   0.000   0.302   0.000   0.000   28.07    4.27    0.00    2.52    0.00    1.75   0.136   0.000   0.136 
 2023 125    16  26.00  25.10  11.20   2.420   2.910   0.000   2.910   2.582   0.000   0.000   0.000   2.582   30.98    6.86    0.00    2.52    0.00    4.33   1.067   0.000   1.067 
 2023 126    17  24.50  22.30   8.50   2.164   2.603   0.000   2.603   0.741   0.000   0.000   0.000   0.741   33.59    7.60    0.00    2.52    0.00    5.07   0.342   0.000   0.342 
 2023 127    18  19.00  23.90   9.50   1.917   2.306   0.000   2.306   0.373   0.000   0.000   0.000   0.373   35.89    7.97    0.00    2.52    0.00    5.45   0.194   0.000   0.194 
 2023 128    19  27.10  24.70   8.10   2.309   2.783   0.000   2.783   0.314   0.000   0.012   0.000   0.302   38.68    8.28    0.00    2.54    0.00    5.75   0.136   0.000   0.136 
 2023 129    20  22.40  22.10  13.40   2.291   2.745   0.000   2.745   0.309   0.000   0.251   0.000   0.058   41.42    8.59    0.00    2.79    0.00    5.81   0.135   0.000   0.135 
 2023 130    21  14.90  21.30  12.00   1.743   2.086   0.000   2.086   1.851   0.000   0.000   0.000   1.851   43.51   10.44    0.00    2.79    0.00    7.66   1.062   0.000   1.062 
 2023 131    22  16.90  22.70  11.20   1.873   2.247   0.000   2.247   1.379   0.000   0.000   0.000   1.379   45.75   11.82    0.00    2.79    0.00    9.04   0.736   0.000   0.736 
 2023 132    23  12.40  17.70  11.40   2.154   2.567   0.003   2.564   2.278   0.003   0.000   0.000   2.275   48.32   14.10    0.00    2.79    0.00   11.31   1.057   0.001   1.056 
 2023 133    24  18.50  20.70  13.10   3.047   3.640   0.007   3.634   2.110   0.007   0.000   0.000   2.103   51.96   16.21    0.01    2.79    0.00   13.41   0.693   0.002   0.690 
 2023 134    25   4.50  14.90  11.00   0.800   0.947   0.003   0.945   0.841   0.003   0.000   0.000   0.838   52.91   17.05    0.01    2.79    0.00   14.25   1.051   0.003   1.048 
 2023 135    26   5.80  12.80   6.80   0.969   1.151   0.004   1.147   0.729   0.004   0.000   0.000   0.725   54.06   17.78    0.02    2.79    0.00   14.98   0.752   0.004   0.748 
 2023 136    27  25.30  22.30   5.70   3.503   4.224   0.015   4.210   0.489   0.015   0.105   0.000   0.370   58.28   18.27    0.03    2.89    0.00   15.35   0.140   0.004   0.135 
 2023 137    28  23.60  25.40   6.00   3.423   4.135   0.018   4.117   0.482   0.018   0.393   0.000   0.071   62.42   18.75    0.05    3.28    0.00   15.42   0.141   0.005   0.136 
 2023 138    29  16.20  20.90  11.50   2.689   3.220   0.018   3.202   2.848   0.018   0.000   0.000   2.830   65.64   21.60    0.07    3.28    0.00   18.25   1.059   0.007   1.053 
 2023 139    30  26.80  17.90   5.20   3.525   4.247   0.028   4.219   0.572   0.028   0.000   0.000   0.544   69.88   22.17    0.09    3.28    0.00   18.79   0.162   0.008   0.154 
 2023 140    31  26.90  22.20   2.10   3.525   4.263   0.031   4.232   0.508   0.031   0.372   0.000   0.105   74.15   22.68    0.13    3.66    0.00   18.90   0.144   0.009   0.135 
 2023 141    32  23.40  24.70   9.80   3.578   4.316   0.030   4.286   0.513   0.030   0.463   0.000   0.020   78.46   23.19    0.16    4.12    0.00   18.92   0.143   0.008   0.135 
 2023 142    33  22.60  24.50  13.80   3.708   4.449   0.038   4.411   0.535   0.038   0.493   0.000   0.004   82.91   23.73    0.19    4.61    0.00   18.92   0.144   0.010   0.134 
 2023 143    34  22.10  24.10  13.00   3.623   4.343   0.061   4.282   0.544   0.061   0.482   0.000   0.001   87.26   24.27    0.25    5.09    0.00   18.92   0.150   0.017   0.133 
 2023 144    35  23.30  24.20  14.30   3.839   4.597   0.092   4.505   0.600   0.092   0.507   0.000   0.000   91.85   24.87    0.35    5.60    0.00   18.92   0.156   0.024   0.132 
 2023 145    36  21.30  22.30  14.70   3.569   4.247   0.116   4.131   0.581   0.116   0.465   0.000   0.000   96.10   25.45    0.46    6.07    0.00   18.92   0.163   0.032   0.130 
 2023 146    37   6.40  20.80  14.60   1.294   1.526   0.053   1.473   1.360   0.053   0.000   0.000   1.307   97.62   26.81    0.52    6.07    0.00   20.23   1.051   0.041   1.010 
 2023 147    38  24.10  23.50  14.30   3.987   4.753   0.193   4.560   1.964   0.193   0.000   0.000   1.771  102.38   28.78    0.71    6.07    0.00   22.00   0.492   0.048   0.444 
 2023 148    39  20.20  22.50  14.20   3.448   4.083   0.201   3.882   1.693   0.201   0.000   0.000   1.492  106.46   30.47    0.91    6.07    0.00   23.49   0.491   0.058   0.433 
 2023 149    40  23.70  26.70  15.20   4.060   4.862   0.277   4.585   3.167   0.277   0.000   0.000   2.890  111.32   33.64    1.19    6.07    0.00   26.38   0.780   0.068   0.712 
 2023 150    41  27.00  27.40  12.20   4.349   5.249   0.357   4.893   2.054   0.357   0.000   0.000   1.698  116.57   35.69    1.54    6.07    0.00   28.08   0.472   0.082   0.390 
 2023 151    42  27.70  26.10  14.80   4.480   5.396   0.429   4.966   0.989   0.429   0.233   0.000   0.326  121.97   36.68    1.97    6.30    0.00   28.41   0.221   0.096   0.125 
 2023 152    43  16.10  23.70  15.60   2.935   3.487   0.324   3.163   0.681   0.324   0.294   0.000   0.063  125.46   37.36    2.30    6.59    0.00   28.47   0.232   0.110   0.121 
 2023 153    44  15.80  23.30  15.40   2.896   3.427   0.358   3.069   0.703   0.358   0.334   0.000   0.012  128.88   38.06    2.65    6.93    0.00   28.48   0.243   0.123   0.119 
 2023 154    45  14.70  22.60  13.50   2.657   3.151   0.359   2.792   0.673   0.359   0.312   0.000   0.002  132.03   38.74    3.01    7.24    0.00   28.48   0.253   0.135   0.118 
 2023 155    46  29.00  26.40  10.90   4.457   5.407   0.645   4.762   3.472   0.645   0.000   0.000   2.827  137.44   42.21    3.66    7.24    0.00   31.31   0.779   0.145   0.634 
 2023 156    47  27.10  26.90  14.90   4.461   5.373   0.706   4.667   1.249   0.706   0.000   0.000   0.544  142.81   43.46    4.36    7.24    0.00   31.85   0.280   0.158   0.122 
 2023 157    48  27.90  27.40  12.40   4.438   5.382   0.764   4.618   3.614   0.764   0.000   0.000   2.850  148.19   47.07    5.13    7.24    0.00   34.70   0.814   0.172   0.642 
 2023 158    49  28.10  28.40  12.90   4.514   5.483   0.829   4.654   1.377   0.829   0.000   0.000   0.548  153.68   48.45    5.96    7.24    0.00   35.25   0.305   0.184   0.121 
 2023 159    50  29.50  30.20  12.80   4.699   5.743   0.998   4.745   1.532   0.998   0.429   0.000   0.105  159.42   49.98    6.95    7.67    0.00   35.36   0.326   0.212   0.114 
 2023 160    51  22.60  29.50  15.90   3.941   4.778   0.964   3.814   1.394   0.964   0.409   0.000   0.020  164.20   51.37    7.92    8.08    0.00   35.38   0.354   0.245   0.109 
 2023 161    52  23.20  26.10  15.20   3.975   4.762   1.098   3.663   3.926   1.098   0.000   0.000   2.828  168.96   55.30    9.02    8.08    0.00   38.21   0.988   0.276   0.711 
 2023 162    53  22.40  21.80  12.40   3.590   4.296   1.098   3.198   1.642   1.098   0.000   0.000   0.544  173.26   56.94   10.11    8.08    0.00   38.75   0.457   0.306   0.151 
 2023 163    54  24.80  21.60   6.90   3.593   4.375   1.178   3.197   1.538   1.178   0.256   0.000   0.105  177.63   58.48   11.29    8.33    0.00   38.85   0.428   0.328   0.100 
 2023 164    55  29.00  23.70   7.20   4.152   5.083   1.433   3.650   1.844   1.433   0.391   0.000   0.020  182.71   60.32   12.72    8.73    0.00   38.87   0.444   0.345   0.099 
 2023 165    56  27.10  27.00   7.00   3.998   4.921   1.467   3.454   1.856   1.467   0.385   0.000   0.004  187.63   62.18   14.19    9.11    0.00   38.88   0.464   0.367   0.097 
 2023 166    57  25.50  29.20  12.90   4.146   5.092   1.629   3.463   2.020   1.629   0.389   0.000   0.001  192.73   64.20   15.82    9.50    0.00   38.88   0.487   0.393   0.094 
 2023 167    58  21.80  23.50  14.40   3.699   4.383   1.582   2.801   1.898   1.582   0.085   0.000   0.230  197.11   66.10   17.40    9.59    0.00   39.11   0.513   0.428   0.085 
 2023 168    59  23.90  24.10  13.30   3.903   4.683   1.778   2.905   2.105   1.778   0.283   0.000   0.044  201.79   68.20   19.18    9.87    0.00   39.15   0.539   0.455   0.084 
 2023 169    60  29.10  30.00  11.30   4.575   5.646   2.211   3.435   2.603   2.211   0.000   0.000   0.392  207.44   70.81   21.39    9.87    0.00   39.55   0.569   0.483   0.086 
 2023 170    61  30.00  31.80  14.50   4.961   6.104   2.576   3.528   2.974   2.576   0.322   0.000   0.075  213.54   73.78   23.97   10.19    0.00   39.62   0.599   0.519   0.080 
 2023 171    62  12.30  28.10  20.30   2.631   3.068   1.461   1.607   1.642   1.461   0.167   0.000   0.015  216.61   75.42   25.43   10.36    0.00   39.64   0.624   0.555   0.069 
 2023 172    63  20.40  26.10  20.00   3.843   4.449   2.280   2.169   2.524   2.280   0.011   0.000   0.233  221.06   77.95   27.71   10.37    0.00   39.87   0.657   0.593   0.064 
 2023 173    64  18.20  26.40  16.90   3.376   3.983   2.138   1.845   3.775   2.138   0.000   0.000   1.637  225.04   81.72   29.85   10.37    0.00   41.51   1.118   0.633   0.485 
 2023 174    65  22.70  27.70  16.50   4.049   4.820   2.702   2.119   4.395   2.702   0.000   0.000   1.693  229.86   86.12   32.55   10.37    0.00   43.20   1.085   0.667   0.418 
 2023 175    66  30.30  28.10  13.90   4.856   5.943   3.398   2.544   5.656   3.398   0.000   0.000   2.258  235.81   91.77   35.95   10.37    0.00   45.46   1.165   0.700   0.465 
 2023 176    67  30.40  26.40  12.20   4.672   5.740   3.401   2.338   5.357   3.401   0.000   0.000   1.956  241.55   97.13   39.35   10.37    0.00   47.41   1.147   0.728   0.419 
 2023 177    68  29.30  27.80  10.40   4.520   5.575   3.394   2.181   3.771   3.394   0.000   0.000   0.376  247.12  100.90   42.74   10.37    0.00   47.79   0.834   0.751   0.083 
 2023 178    69  23.50  29.80  17.10   4.179   5.074   3.228   1.846   3.436   3.228   0.136   0.000   0.072  252.20  104.34   45.97   10.50    0.00   47.86   0.822   0.773   0.050 
 2023 179    70  27.50  29.00  23.80   5.138   6.027   4.113   1.914   4.329   4.113   0.202   0.000   0.014  258.22  108.66   50.08   10.71    0.00   47.87   0.842   0.800   0.042 
 2023 180    71  29.00  28.50  17.90   4.979   5.980   4.137   1.843   4.345   4.137   0.205   0.000   0.003  264.20  113.01   54.22   10.91    0.00   47.88   0.873   0.831   0.042 
 2023 181    72  14.00  23.40  16.10   2.668   3.083   2.279   0.804   2.993   2.279   0.000   0.000   0.714  267.29  116.00   56.50   10.91    0.00   48.59   1.122   0.854   0.267 
 2023 182    73  21.50  25.00  14.00   3.666   4.365   3.193   1.172   4.233   3.193   0.000   0.000   1.040  271.65  120.23   59.69   10.91    0.00   49.63   1.155   0.871   0.284 
 2023 183    74  29.10  30.70  13.30   4.725   5.846   4.189   1.657   5.659   4.189   0.000   0.000   1.470  277.50  125.89   63.88   10.91    0.00   51.10   1.198   0.887   0.311 
 2023 184    75  29.40  31.10  18.90   5.134   6.238   4.642   1.596   5.482   4.642   0.000   0.000   0.839  283.73  131.38   68.52   10.91    0.00   51.94   1.068   0.904   0.163 
 2023 185    76  23.60  27.20  16.00   4.098   4.914   3.831   1.082   3.993   3.831   0.000   0.000   0.161  288.65  135.37   72.36   10.91    0.00   52.10   0.974   0.935   0.039 
 2023 186    77   8.50  17.10  14.10   1.658   1.830   1.580   0.250   1.802   1.580   0.000   0.000   0.222  290.48  137.17   73.93   10.91    0.00   52.32   1.087   0.953   0.134 
 2023 187    78   9.60  19.10  11.50   1.863   2.138   1.786   0.352   2.098   1.786   0.000   0.000   0.312  292.62  139.27   75.72   10.91    0.00   52.64   1.126   0.959   0.168 
 2023 188    79  25.10  26.10  15.70   4.262   5.070   4.111   0.959   4.962   4.111   0.000   0.000   0.851  297.69  144.23   79.83   10.91    0.00   53.49   1.164   0.964   0.200 
 2023 189    80  13.80  19.00  11.30   2.391   2.753   2.333   0.420   2.706   2.333   0.000   0.000   0.373  300.44  146.94   82.17   10.91    0.00   53.86   1.132   0.976   0.156 
 2023 190    81  28.80  26.70  11.40   4.499   5.505   4.413   1.091   5.382   4.413   0.000   0.000   0.968  305.94  152.32   86.58   10.91    0.00   54.83   1.196   0.981   0.215 
 2023 191    82  28.00  32.70  17.10   4.896   5.997   4.829   1.167   5.865   4.829   0.000   0.000   1.036  311.94  158.18   91.41   10.91    0.00   55.86   1.198   0.986   0.212 
 2023 192    83  25.80  31.70  16.00   4.503   5.503   4.473   1.030   5.387   4.473   0.000   0.000   0.914  317.44  163.57   95.88   10.91    0.00   56.78   1.196   0.993   0.203 
 2023 193    84  27.70  30.00  19.40   4.939   5.889   4.930   0.959   5.781   4.930   0.000   0.000   0.851  323.33  169.35  100.81   10.91    0.00   57.63   1.170   0.998   0.172 
 2023 194    85  18.70  29.60  15.90   3.409   4.141   3.413   0.728   4.059   3.413   0.000   0.000   0.646  327.47  173.41  104.22   10.91    0.00   58.27   1.191   1.001   0.189 
 2023 195    86  20.00  27.10  15.60   3.536   4.230   3.545   0.686   4.153   3.545   0.000   0.000   0.608  331.70  177.56  107.77   10.91    0.00   58.88   1.175   1.003   0.172 
 2023 196    87  24.50  28.60  14.30   4.082   4.984   4.092   0.892   4.884   4.092   0.000   0.000   0.792  336.69  182.45  111.86   10.91    0.00   59.67   1.196   1.002   0.194 
 2023 197    88  23.10  29.80  18.30   4.106   4.958   4.113   0.845   4.863   4.113   0.000   0.000   0.749  341.65  187.31  115.97   10.91    0.00   60.42   1.184   1.002   0.183 
 2023 198    89  26.50  26.80  17.80   4.645   5.403   4.651   0.752   5.318   4.651   0.000   0.000   0.667  347.05  192.63  120.63   10.91    0.00   61.09   1.145   1.001   0.144 
 2023 199    90  18.70  28.50  16.00   3.431   4.079   3.432   0.647   4.006   3.432   0.000   0.000   0.574  351.13  196.63  124.06   10.91    0.00   61.66   1.168   1.000   0.167 
 2023 200    91  10.70  26.60  20.60   2.305   2.624   2.303   0.321   2.588   2.303   0.000   0.000   0.285  353.75  199.22  126.36   10.91    0.00   61.95   1.123   0.999   0.124 
 2023 201    92  11.70  23.50  16.80   2.316   2.657   2.309   0.349   2.618   2.309   0.000   0.000   0.309  356.41  201.84  128.67   10.91    0.00   62.26   1.130   0.997   0.134 
 2023 202    93  27.30  26.60  13.10   4.351   5.262   4.328   0.934   5.157   4.328   0.000   0.000   0.829  361.67  207.00  133.00   10.91    0.00   63.09   1.185   0.995   0.190 
 2023 203    94  27.10  31.60  14.20   4.411   5.474   4.388   1.085   5.352   4.388   0.000   0.000   0.963  367.14  212.35  137.38   10.91    0.00   64.05   1.213   0.995   0.218 
 2023 204    95  27.30  33.80  13.90   4.508   5.618   4.496   1.122   5.492   4.496   0.000   0.000   0.995  372.76  217.84  141.88   10.91    0.00   65.05   1.218   0.997   0.221 
 2023 205    96  26.40  34.70  18.10   4.486   5.593   4.488   1.105   5.469   4.488   0.000   0.000   0.981  378.36  223.31  146.37   10.91    0.00   66.03   1.219   1.000   0.219 
 2023 206    97  25.00  35.80  21.00   4.637   5.662   4.630   1.032   5.546   4.630   0.000   0.000   0.916  384.02  228.85  151.00   10.91    0.00   66.94   1.196   0.998   0.198 
 2023 207    98  24.10  37.40  17.60   4.163   5.203   4.149   1.054   5.084   4.149   0.000   0.000   0.935  389.22  233.94  155.15   10.91    0.00   67.88   1.221   0.997   0.225 
 2023 208    99  27.10  37.50  20.00   4.585   5.730   4.561   1.168   4.802   4.561   0.000   0.000   0.241  394.95  238.74  159.71   10.91    0.00   68.12   1.047   0.995   0.053 
 2023 209   100  24.40  34.80  17.90   4.197   5.224   4.169   1.055   4.288   4.169   0.073   0.000   0.046  400.17  243.03  163.88   10.98    0.00   68.17   1.022   0.993   0.028 
 2023 210   101  26.40  31.20  17.80   4.508   5.486   4.472   1.013   4.587   4.472   0.105   0.000   0.009  405.66  247.61  168.35   11.09    0.00   68.17   1.017   0.992   0.025 
 2023 211   102  24.40  34.50  19.90   4.425   5.399   4.386   1.013   5.001   4.386   0.000   0.000   0.616  411.06  252.62  172.74   11.09    0.00   68.79   1.130   0.991   0.139 
 2023 212   103  24.50  30.60  20.10   4.423   5.254   4.381   0.874   4.499   4.381   0.000   0.000   0.118  416.31  257.12  177.12   11.09    0.00   68.91   1.017   0.990   0.027 
 2023 213   104  23.30  29.80  21.00   4.276   5.018   4.234   0.785   4.930   4.234   0.000   0.000   0.696  421.33  262.05  181.35   11.09    0.00   69.60   1.153   0.990   0.163 
 2023 214   105  22.80  31.60  19.80   4.120   4.948   4.080   0.868   4.850   4.080   0.000   0.000   0.770  426.28  266.90  185.43   11.09    0.00   70.38   1.177   0.990   0.187 
 2023 215   106  19.60  28.20  18.50   3.575   4.187   3.540   0.647   4.114   3.540   0.000   0.000   0.574  430.47  271.01  188.97   11.09    0.00   70.95   1.151   0.990   0.161 
 2023 216   107  24.00  30.00  17.30   4.124   4.966   4.083   0.882   4.866   4.083   0.000   0.000   0.783  435.43  275.88  193.05   11.09    0.00   71.73   1.180   0.990   0.190 
 2023 217   108  24.90  29.10  16.80   4.158   5.027   4.117   0.910   4.924   4.117   0.000   0.000   0.808  440.46  280.80  197.17   11.09    0.00   72.54   1.184   0.990   0.194 
 2023 218   109  20.10  25.30  15.30   3.364   4.013   3.331   0.682   3.936   3.331   0.000   0.000   0.605  444.47  284.74  200.50   11.09    0.00   73.14   1.170   0.990   0.180 
 2023 219   110  12.30  22.00  12.00   2.191   2.575   2.169   0.406   2.529   2.169   0.000   0.000   0.360  447.05  287.26  202.67   11.09    0.00   73.50   1.154   0.990   0.164 
 2023 220   111  19.50  26.60  12.40   3.198   3.859   3.167   0.692   3.781   3.167   0.000   0.000   0.614  450.91  291.05  205.84   11.09    0.00   74.12   1.182   0.990   0.192 
 2023 221   112  23.70  27.00  15.60   3.857   4.623   3.819   0.805   4.533   3.819   0.000   0.000   0.714  455.53  295.58  209.66   11.09    0.00   74.83   1.175   0.990   0.185 
 2023 222   113  23.00  31.30  16.60   3.838   4.710   3.801   0.910   4.608   3.801   0.000   0.000   0.807  460.24  300.19  213.46   11.09    0.00   75.64   1.200   0.990   0.210 
 2023 223   114  25.40  31.60  14.30   4.027   4.978   3.988   0.991   4.867   3.988   0.000   0.000   0.879  465.22  305.05  217.44   11.09    0.00   76.52   1.208   0.990   0.218 
 2023 224   115  19.10  27.10  17.40   3.288   3.923   3.256   0.667   3.848   3.256   0.000   0.000   0.592  469.14  308.90  220.70   11.09    0.00   77.11   1.170   0.990   0.180 
 2023 225   116  15.90  22.40  12.40   2.617   3.104   2.591   0.512   3.046   2.591   0.000   0.000   0.455  472.24  311.95  223.29   11.09    0.00   77.57   1.164   0.990   0.174 
 2023 226   117  24.30  24.50  11.40   3.551   4.334   3.516   0.818   4.055   3.516   0.000   0.000   0.539  476.58  316.00  226.81   11.09    0.00   78.10   1.142   0.990   0.152 
 2023 227   118  25.40  31.10   7.50   3.542   4.426   3.507   0.919   3.610   3.507   0.000   0.000   0.104  481.00  319.61  230.31   11.09    0.00   78.21   1.019   0.990   0.029 
 2023 228   119  24.50  36.50  15.70   3.853   4.815   3.815   1.000   3.927   3.815   0.093   0.000   0.020  485.82  323.54  234.13   11.18    0.00   78.23   1.019   0.990   0.029 
 2023 229   120  22.80  28.30  14.30   3.551   4.347   3.514   0.834   3.608   3.514   0.090   0.000   0.004  490.17  327.15  237.64   11.27    0.00   78.23   1.016   0.989   0.026 
 2023 230   121  22.80  35.70  17.10   3.742   4.677   3.696   0.980   3.807   3.696   0.110   0.000   0.001  494.84  330.95  241.34   11.38    0.00   78.23   1.017   0.988   0.030 
 2023 231   122  23.70  34.80  20.30   4.062   4.988   4.003   0.985   4.114   4.003   0.111   0.000   0.000  499.83  335.07  245.34   11.49    0.00   78.23   1.013   0.986   0.027 
 2023 232   123  20.60  33.00  20.80   3.682   4.448   3.618   0.830   3.712   3.618   0.093   0.000   0.000  504.28  338.78  248.96   11.59    0.00   78.23   1.008   0.983   0.025 
 2023 233   124  23.90  38.60  22.00   4.024   5.028   3.939   1.089   4.062   3.939   0.123   0.000   0.000  509.31  342.84  252.90   11.71    0.00   78.23   1.010   0.979   0.030 
 2023 234   125  23.40  39.20  22.70   3.850   4.811   3.753   1.058   3.873   3.753   0.119   0.000   0.000  514.12  346.71  256.65   11.83    0.00   78.23   1.006   0.975   0.031 
 2023 235   126  21.30  38.60  21.00   3.572   4.464   3.467   0.997   3.579   3.467   0.112   0.000   0.000  518.58  350.29  260.12   11.94    0.00   78.23   1.002   0.971   0.031 
 2023 236   127  22.80  37.20  20.60   3.586   4.481   3.464   1.017   3.578   3.464   0.115   0.000   0.000  523.06  353.87  263.58   12.06    0.00   78.23   0.998   0.966   0.032 
 2023 237   128  15.70  30.20  20.50   2.875   3.447   2.764   0.684   2.841   2.764   0.077   0.000   0.000  526.51  356.71  266.35   12.13    0.00   78.23   0.988   0.961   0.027 
 2023 238   129  22.40  26.30  12.50   3.237   3.969   3.094   0.875   3.192   3.094   0.099   0.000   0.000  530.48  359.90  269.44   12.23    0.00   78.23   0.986   0.956   0.030 
 2023 239   130  23.00  30.80   9.20   3.177   3.970   3.016   0.954   3.123   3.016   0.108   0.000   0.000  534.45  363.03  272.46   12.34    0.00   78.23   0.983   0.949   0.034 
 2023 240   131  17.90  27.60  15.30   2.839   3.462   2.676   0.786   2.764   2.676   0.089   0.000   0.000  537.91  365.79  275.13   12.43    0.00   78.23   0.974   0.942   0.031 
 2023 241   132  21.00  30.30  12.30   3.045   3.805   2.846   0.959   2.954   2.846   0.108   0.000   0.000  541.72  368.75  277.98   12.53    0.00   78.23   0.970   0.935   0.036 
 2023 242   133  22.10  32.10  11.10   3.155   3.942   2.921   1.022   3.036   2.921   0.115   0.000   0.000  545.66  371.78  280.90   12.65    0.00   78.23   0.962   0.926   0.036 
 2023 243   134  21.60  34.80  17.70   3.310   4.136   3.033   1.103   3.157   3.033   0.124   0.000   0.000  549.80  374.94  283.93   12.77    0.00   78.23   0.954   0.916   0.038 
 2023 244   135  22.10  37.10  19.90   3.533   4.415   3.201   1.214   3.338   3.201   0.137   0.000   0.000  554.21  378.28  287.13   12.91    0.00   78.23   0.945   0.906   0.039 
 2023 245   136  22.50  39.40  16.40   3.256   4.069   2.914   1.156   3.044   2.914   0.130   0.000   0.000  558.28  381.32  290.05   13.04    0.00   78.23   0.935   0.895   0.040 
 2023 246   137  20.60  38.20  15.70   3.016   3.770   2.663   1.106   2.788   2.663   0.125   0.000   0.000  562.05  384.11  292.71   13.17    0.00   78.23   0.924   0.883   0.041 
 2023 247   138  21.30  36.30  15.30   3.108   3.884   2.704   1.180   2.837   2.704   0.133   0.000   0.000  565.93  386.95  295.41   13.30    0.00   78.23   0.913   0.870   0.043 
 2023 248   139  17.60  21.60   7.10   2.345   2.878   2.008   0.870   2.106   2.008   0.098   0.000   0.000  568.81  389.05  297.42   13.40    0.00   78.23   0.898   0.856   0.042 
 2023 249   140  19.70  26.80   5.50   2.462   3.077   2.073   1.003   2.186   2.073   0.113   0.000   0.000  571.89  391.24  299.50   13.51    0.00   78.23   0.888   0.842   0.046 
 2023 250   141  19.90  33.00  10.00   2.670   3.336   2.209   1.127   2.336   2.209   0.127   0.000   0.000  575.22  393.58  301.71   13.64    0.00   78.23   0.875   0.827   0.048 
 2023 251   142  20.40  29.60   8.40   2.662   3.326   2.161   1.165   2.292   2.161   0.131   0.000   0.000  578.55  395.87  303.87   13.77    0.00   78.23   0.861   0.812   0.049 
 2023 252   143  17.80  32.20  14.10   2.623   3.278   2.087   1.191   2.221   2.087   0.134   0.000   0.000  581.83  398.09  305.95   13.90    0.00   78.23   0.847   0.796   0.051 
 2023 253   144   6.40  18.50  13.10   1.234   1.370   0.962   0.408   1.008   0.962   0.046   0.000   0.000  583.20  399.10  306.92   13.95    0.00   78.23   0.817   0.780   0.037 
 2023 254   145  14.10  20.60   9.20   1.992   2.385   1.522   0.863   2.288   1.522   0.000   0.000   0.766  585.58  401.38  308.44   13.95    0.00   79.00   1.149   0.764   0.385 
 2023 255   146  20.90  23.70   9.90   2.634   3.235   1.971   1.264   3.092   1.971   0.000   0.000   1.121  588.82  404.48  310.41   13.95    0.00   80.12   1.174   0.748   0.426 
 2023 256   147  19.90  24.90   9.80   2.554   3.147   1.870   1.277   3.003   1.870   0.000   0.000   1.133  591.97  407.48  312.28   13.95    0.00   81.25   1.176   0.732   0.444 
 2023 257   148  13.60  24.40  12.40   2.067   2.484   1.479   1.005   1.866   1.479   0.000   0.000   0.387  594.45  409.35  313.76   13.95    0.00   81.64   0.903   0.716   0.187 
 2023 258   149  11.10  22.70  13.20   1.797   2.123   1.256   0.867   1.714   1.256   0.000   0.000   0.458  596.57  411.06  315.01   13.95    0.00   82.10   0.954   0.699   0.255 
 2023 259   150  19.90  26.80   9.70   2.457   3.061   1.676   1.385   2.905   1.676   0.000   0.000   1.229  599.63  413.97  316.69   13.95    0.00   83.33   1.182   0.682   0.500 
 2023 260   151  19.80  28.40   6.00   2.320   2.900   1.544   1.356   2.747   1.544   0.000   0.000   1.203  602.53  416.71  318.23   13.95    0.00   84.53   1.184   0.665   0.518 
 2023 261   152  17.90  32.40  10.20   2.236   2.795   1.450   1.344   2.256   1.450   0.000   0.000   0.805  605.33  418.97  319.68   13.95    0.00   85.34   1.009   0.649   0.360 
 2023 262   153  18.70  32.10   8.70   2.211   2.763   1.396   1.366   1.551   1.396   0.000   0.000   0.155  608.09  420.52  321.08   13.95    0.00   85.49   0.702   0.632   0.070 
 2023 263   154  16.60  30.80   8.60   2.061   2.575   1.267   1.308   1.414   1.267   0.118   0.000   0.030  610.67  421.93  322.35   14.07    0.00   85.52   0.686   0.615   0.072 
 2023 264   155  13.50  23.00  12.30   1.955   2.317   1.202   1.115   2.191   1.202   0.000   0.000   0.989  612.98  424.13  323.55   14.07    0.00   86.51   1.121   0.615   0.506 
 2023 265   156   6.50  20.60  12.00   1.247   1.439   0.767   0.672   1.363   0.767   0.000   0.000   0.596  614.42  425.49  324.32   14.07    0.00   87.11   1.093   0.615   0.478 
 2023 266   157  19.10  22.40  11.30   2.301   2.783   1.415   1.368   2.628   1.415   0.000   0.000   1.214  617.20  428.12  325.73   14.07    0.00   88.32   1.142   0.615   0.527 
 2023 267   158  18.80  25.40   7.90   2.116   2.640   1.301   1.339   2.489   1.301   0.000   0.000   1.188  619.84  430.61  327.03   14.07    0.00   89.51   1.176   0.615   0.561 
 2023 268   159  18.70  27.40   5.00   1.968   2.459   1.210   1.249   2.318   1.210   0.000   0.000   1.108  622.30  432.92  328.24   14.07    0.00   90.62   1.178   0.615   0.563 
