*N2O emissions output file

*DSSAT Cropping System Model Ver. 4.8.2.000 -release  APR 04, 2025 03:03:53

*RUN   1        : farm_23                   MZCER048 UNLI2309    1
 MODEL          : MZCER048 - Maize
 EXPERIMENT     : UNLI2309 MZ PIO1366
 DATA PATH      :
 TREATMENT  1   : farm_23                   MZCER048
  
!              |------------------------------ Cumulative -----------------------------|------------------------------ Daily ----------------------------------|
!               N2Oemit  N2emit  NOemit   Denit  Nitrif   N2O-denit+nit      N2      NO N2Oemit  N2emit  NOemit   Denit  Nitrif   N2O-denit+nit      N2      NO   Denitrification (g[N]/ha) by soil depth (cm):                                   Nitrification (g[N]/ha) by soil depth (cm):                                     N2O flux (g[N]/ha) by soil depth (cm):                                          N2 flux (g[N]/ha) by soil depth (cm):                                           NO flux (g[N]/ha) by soil depth (cm):
!                 kg/ha   kg/ha   kg/ha   kg/ha   kg/ha   kg/ha   kg/ha   kg/ha   kg/ha    g/ha    g/ha    g/ha    g/ha    g/ha    g/ha    g/ha    g/ha    g/ha     0-5    5-15   15-23   23-31   31-46   46-61   61-91  91-106 106-122 122-183     0-5    5-15   15-23   23-31   31-46   46-61   61-91  91-106 106-122 122-183     0-5    5-15   15-23   23-31   31-46   46-61   61-91  91-106 106-122 122-183     0-5    5-15   15-23   23-31   31-46   46-61   61-91  91-106 106-122 122-183     0-5    5-15   15-23   23-31   31-46   46-61   61-91  91-106 106-122 122-183
@YEAR DOY   DAS   N2OEC    N2EC    NOEC    NDNC    NITC   N2ODC   N2ONC   N2FLC   NOFLC  N2OGED   N2GED   NOGED    NDND   NITRD   N2ODD   N2OND   N2FLD   NOFLD   NDN1D   NDN2D   NDN3D   NDN4D   NDN5D   NDN6D   NDN7D   NDN8D   NDN9D   NDN10   NIT1D   NIT2D   NIT3D   NIT4D   NIT5D   NIT6D   NIT7D   NIT8D   NIT9D   NIT10   N2O1D   N2O2D   N2O3D   N2O4D   N2O5D   N2O6D   N2O7D   N2O8D   N2O9D   N2O10   N2F1D   N2F2D   N2F3D   N2F4D   N2F5D   N2F6D   N2F7D   N2F8D   N2F9D   N2F10   NOF1D   NOF2D   NOF3D   NOF4D   NOF5D   NOF6D   NOF7D   NOF8D   NOF9D   NOF10
 2023 110     1    0.00    0.00    0.00    0.00     0.3   0.000   0.000   0.000   0.001     0.0     0.0     0.0     0.0     291    0.00    0.29    0.00    0.74     0.0     0.0     0.0     0.0     0.0     0.0     0.0     0.0     0.0     0.0      8.     15.     12.     11.     22.     21.     53.     26.     27.     48.     0.0     0.0     0.0     0.0     0.0     0.0     0.1     0.0     0.0     0.0     0.0     0.0     0.0     0.0     0.0     0.0     0.0     0.0     0.0     0.0     0.0     0.0     0.0     0.0     0.0     0.0     0.2     0.1     0.1     0.1
 2023 111     2    0.00    0.00    0.00    0.00     0.5   0.000   0.001   0.000   0.001     0.0     0.0     0.0     0.0     258    0.00    0.26    0.00    0.65     0.0     0.0     0.0     0.0     0.0     0.0     0.0     0.0     0.0     0.0      8.     15.     12.     11.     20.     19.     46.     22.     23.     41.     0.0     0.0     0.0     0.0     0.0     0.0     0.0     0.0     0.0     0.0     0.0     0.0     0.0     0.0     0.0     0.0     0.0     0.0     0.0     0.0     0.0     0.0     0.0     0.0     0.0     0.0     0.1     0.1     0.1     0.1
 2023 112     3    0.00    0.00    0.00    0.00     0.8   0.000   0.001   0.000   0.002     0.0     0.0     0.0     0.0     220    0.00    0.22    0.00    0.55     0.0     0.0     0.0     0.0     0.0     0.0     0.0     0.0     0.0     0.0      7.     14.     11.     10.     18.     17.     38.     18.     19.     34.     0.0     0.0     0.0     0.0     0.0     0.0     0.0     0.0     0.0     0.0     0.0     0.0     0.0     0.0     0.0     0.0     0.0     0.0     0.0     0.0     0.0     0.0     0.0     0.0     0.0     0.0     0.1     0.1     0.1     0.1
 2023 113     4    0.00    0.00    0.00    0.00     0.9   0.000   0.001   0.000   0.002     0.0     0.0     0.0     0.0     181    0.00    0.18    0.00    0.45     0.0     0.0     0.0     0.0     0.0     0.0     0.0     0.0     0.0     0.0      6.     12.      9.      9.     15.     14.     30.     14.     15.     28.     0.0     0.0     0.0     0.0     0.0     0.0     0.0     0.0     0.0     0.0     0.0     0.0     0.0     0.0     0.0     0.0     0.0     0.0     0.0     0.0     0.0     0.0     0.0     0.0     0.0     0.0     0.1     0.0     0.0     0.1
 2023 114     5    0.00    0.00    0.00    0.00     1.1   0.000   0.001   0.000   0.003     0.0     0.0     0.0     0.0     148    0.00    0.15    0.00    0.37     0.0     0.0     0.0     0.0     0.0     0.0     0.0     0.0     0.0     0.0      5.     10.      7.      7.     12.     11.     24.     12.     12.     23.     0.0     0.0     0.0     0.0     0.0     0.0     0.0     0.0     0.0     0.0     0.0     0.0     0.0     0.0     0.0     0.0     0.0     0.0     0.0     0.0     0.0     0.0     0.0     0.0     0.0     0.0     0.1     0.0     0.0     0.1
 2023 115     6    0.00    0.00    0.00    0.00     1.2   0.000   0.001   0.000   0.003     0.0     0.0     0.0     0.0     129    0.00    0.13    0.00    0.32     0.0     0.0     0.0     0.0     0.0     0.0     0.0     0.0     0.0     0.0      4.      9.      6.      6.     10.     10.     21.     10.     11.     20.     0.0     0.0     0.0     0.0     0.0     0.0     0.0     0.0     0.0     0.0     0.0     0.0     0.0     0.0     0.0     0.0     0.0     0.0     0.0     0.0     0.0     0.0     0.0     0.0     0.0     0.0     0.1     0.0     0.0     0.1
 2023 116     7    0.00    0.00    0.00    0.00     1.3   0.000   0.001   0.000   0.003     0.0     0.0     0.0     0.0     119    0.00    0.12    0.00    0.29     0.0     0.0     0.0     0.0     0.0     0.0     0.0     0.0     0.0     0.0      4.      8.      6.      6.     10.      9.     19.      9.     10.     18.     0.0     0.0     0.0     0.0     0.0     0.0     0.0     0.0     0.0     0.0     0.0     0.0     0.0     0.0     0.0     0.0     0.0     0.0     0.0     0.0     0.0     0.0     0.0     0.0     0.0     0.0     0.1     0.0     0.0     0.1
 2023 117     8    0.00    0.00    0.00    0.00     1.5   0.000   0.001   0.000   0.004     0.0     0.0     0.0     0.0     120    0.00    0.12    0.00    0.29     0.0     0.0     0.0     0.0     0.0     0.0     0.0     0.0     0.0     0.0      4.      8.      6.      6.     10.     10.     19.      9.     10.     18.     0.0     0.0     0.0     0.0     0.0     0.0     0.0     0.0     0.0     0.0     0.0     0.0     0.0     0.0     0.0     0.0     0.0     0.0     0.0     0.0     0.0     0.0     0.0     0.0     0.0     0.0     0.1     0.0     0.0     0.1
 2023 118     9    0.00    0.00    0.00    0.00     1.6   0.000   0.002   0.000   0.004     0.0     0.0     0.0     0.0     126    0.00    0.13    0.00    0.31     0.0     0.0     0.0     0.0     0.0     0.0     0.0     0.0     0.0     0.0      5.      9.      7.      7.     11.     10.     20.      9.     10.     18.     0.0     0.0     0.0     0.0     0.0     0.0     0.0     0.0     0.0     0.0     0.0     0.0     0.0     0.0     0.0     0.0     0.0     0.0     0.0     0.0     0.0     0.0     0.0     0.0     0.0     0.0     0.1     0.0     0.0     0.1
 2023 119    10    0.00    0.00    0.00    0.00     1.7   0.000   0.002   0.000   0.004     0.0     0.0     0.0     0.0     124    0.00    0.12    0.00    0.30     0.0     0.0     0.0     0.0     0.0     0.0     0.0     0.0     0.0     0.0      5.     10.      7.      7.     11.     10.     19.      9.      9.     17.     0.0     0.0     0.0     0.0     0.0     0.0     0.0     0.0     0.0     0.0     0.0     0.0     0.0     0.0     0.0     0.0     0.0     0.0     0.0     0.0     0.0     0.0     0.0     0.0     0.0     0.0     0.1     0.0     0.0     0.0
 2023 120    11    0.00    0.00    0.00    0.00     1.8   0.000   0.002   0.000   0.005     0.0     0.0     0.0     0.0     122    0.00    0.12    0.00    0.29     0.0     0.0     0.0     0.0     0.0     0.0     0.0     0.0     0.0     0.0      6.     11.      8.      8.     11.     11.     19.      8.      9.     16.     0.0     0.0     0.0     0.0     0.0     0.0     0.0     0.0     0.0     0.0     0.0     0.0     0.0     0.0     0.0     0.0     0.0     0.0     0.0     0.0     0.0     0.0     0.0     0.0     0.0     0.0     0.1     0.0     0.0     0.0
 2023 121    12    0.00    0.00    0.00    0.00     2.0   0.000   0.002   0.000   0.005     0.0     0.0     0.0     0.0     119    0.00    0.12    0.00    0.28     0.0     0.0     0.0     0.0     0.0     0.0     0.0     0.0     0.0     0.0      6.     11.      8.      8.     12.     11.     18.      8.      8.     15.     0.0     0.0     0.0     0.0     0.0     0.0     0.0     0.0     0.0     0.0     0.0     0.0     0.0     0.0     0.0     0.0     0.0     0.0     0.0     0.0     0.0     0.0     0.0     0.0     0.0     0.0     0.1     0.0     0.0     0.0
 2023 122    13    0.00    0.00    0.00    0.00     2.1   0.000   0.002   0.000   0.005     0.0     0.0     0.0     0.0     109    0.00    0.11    0.00    0.25     0.0     0.0     0.0     0.0     0.0     0.0     0.0     0.0     0.0     0.0      6.     11.      8.      8.     11.     10.     16.      7.      7.     13.     0.0     0.0     0.0     0.0     0.0     0.0     0.0     0.0     0.0     0.0     0.0     0.0     0.0     0.0     0.0     0.0     0.0     0.0     0.0     0.0     0.0     0.0     0.0     0.0     0.0     0.0     0.0     0.0     0.0     0.0
 2023 123    14    0.00    0.00    0.00    0.00     2.2   0.000   0.002   0.000   0.005     0.0     0.0     0.0     0.0      99    0.00    0.10    0.00    0.23     0.0     0.0     0.0     0.0     0.0     0.0     0.0     0.0     0.0     0.0      6.     11.      8.      7.     10.      9.     14.      6.      6.     11.     0.0     0.0     0.0     0.0     0.0     0.0     0.0     0.0     0.0     0.0     0.0     0.0     0.0     0.0     0.0     0.0     0.0     0.0     0.0     0.0     0.0     0.0     0.0     0.0     0.0     0.0     0.0     0.0     0.0     0.0
 2023 124    15    0.00    0.00    0.00    0.00     2.3   0.000   0.002   0.000   0.006     0.0     0.0     0.0     0.0     104    0.00    0.10    0.00    0.88     0.0     0.0     0.0     0.0     0.0     0.0     0.0     0.0     0.0     0.0      7.     12.      9.      8.     11.     10.     15.      6.      6.     11.     0.0     0.0     0.0     0.0     0.0     0.0     0.0     0.0     0.0     0.0     0.0     0.0     0.0     0.0     0.0     0.0     0.0     0.0     0.0     0.0     0.0     0.1     0.1     0.1     0.1     0.1     0.2     0.1     0.1     0.1
 2023 125    16    0.00    0.00    0.00    0.00     2.4   0.000   0.002   0.000   0.007     0.0     0.0     0.0     0.0     108    0.00    0.11    0.00    0.72     0.0     0.0     0.0     0.0     0.0     0.0     0.0     0.0     0.0     0.0      4.     13.     10.      9.     12.     11.     16.      6.      6.     11.     0.0     0.0     0.0     0.0     0.0     0.0     0.0     0.0     0.0     0.0     0.0     0.0     0.0     0.0     0.0     0.0     0.0     0.0     0.0     0.0     0.0     0.1     0.1     0.0     0.1     0.1     0.1     0.1     0.1     0.1
 2023 126    17    0.00    0.00    0.00    0.00     2.5   0.000   0.002   0.000   0.007     0.0     0.0     0.0     0.0     119    0.00    0.12    0.00    0.58     0.0     0.0     0.0     0.0     0.0     0.0     0.0     0.0     0.0     0.0      5.     12.     10.     12.     15.     13.     18.      6.      6.     11.     0.0     0.0     0.0     0.0     0.0     0.0     0.0     0.0     0.0     0.0     0.0     0.0     0.0     0.0     0.0     0.0     0.0     0.0     0.0     0.0     0.0     0.0     0.0     0.0     0.1     0.1     0.1     0.0     0.0     0.1
 2023 127    18    0.00    0.00    0.00    0.00     2.6   0.000   0.003   0.000   0.008     0.0     0.0     0.0     0.0     146    0.00    0.15    0.00    0.54     0.0     0.0     0.0     0.0     0.0     0.0     0.0     0.0     0.0     0.0     10.     18.     13.     12.     18.     16.     22.      7.      7.     12.     0.0     0.0     0.0     0.0     0.0     0.0     0.0     0.0     0.0     0.0     0.0     0.0     0.0     0.0     0.0     0.0     0.0     0.0     0.0     0.0     0.0     0.0     0.0     0.0     0.1     0.1     0.1     0.0     0.0     0.1
 2023 128    19    0.00    0.00    0.00    0.00     2.8   0.000   0.003   0.000   0.009     0.0     0.0     0.1     0.0     181    0.00    0.18    0.00    0.54     0.0     0.0     0.0     0.0     0.0     0.0     0.0     0.0     0.0     0.0     14.     25.     17.     16.     22.     19.     26.      8.      8.     13.     0.0     0.0     0.0     0.0     0.0     0.0     0.0     0.0     0.0     0.0     0.0     0.0     0.0     0.0     0.0     0.0     0.0     0.0     0.0     0.0     0.0     0.0     0.0     0.0     0.1     0.1     0.1     0.0     0.0     0.1
 2023 129    20    0.00    0.00    0.00    0.00     3.0   0.000   0.003   0.000   0.009     0.0     0.0     0.1     0.3     210    0.01    0.21    0.27    0.55     0.1     0.2     0.0     0.0     0.0     0.0     0.0     0.0     0.0     0.0     17.     31.     22.     20.     25.     22.     30.      9.      8.     14.     0.0     0.0     0.0     0.0     0.0     0.0     0.0     0.0     0.0     0.0     0.1     0.2     0.0     0.0     0.0     0.0     0.0     0.0     0.0     0.0     0.0     0.1     0.0     0.0     0.1     0.1     0.1     0.0     0.0     0.1
 2023 130    21    0.00    0.00    0.00    0.00     3.3   0.000   0.003   0.001   0.010     0.0     0.0     0.1     0.4     227    0.01    0.23    0.35    0.50     0.0     0.1     0.2     0.0     0.0     0.0     0.0     0.0     0.0     0.0     20.     33.     24.     21.     27.     23.     32.      9.      9.     15.     0.0     0.0     0.0     0.0     0.0     0.0     0.0     0.0     0.0     0.0     0.0     0.1     0.2     0.0     0.0     0.0     0.0     0.0     0.0     0.0     0.0     0.1     0.0     0.0     0.1     0.0     0.1     0.0     0.0     0.0
 2023 131    22    0.00    0.00    0.00    0.01     3.5   0.000   0.003   0.006   0.010     0.0     0.0     0.0     5.5     200    0.14    0.20    5.40    0.39     0.0     2.2     2.0     1.4     0.0     0.0     0.0     0.0     0.0     0.0     11.     22.     18.     19.     27.     25.     34.      9.      9.     15.     0.0     0.1     0.1     0.1     0.0     0.0     0.0     0.0     0.0     0.0     0.0     2.2     1.9     1.3     0.0     0.0     0.0     0.0     0.0     0.0     0.0     0.0     0.0     0.0     0.0     0.0     0.1     0.0     0.0     0.0
 2023 132    23    0.00    0.00    0.00    0.01     3.7   0.000   0.004   0.012   0.010     0.0     0.0     0.0     6.6     202    0.16    0.20    6.47    0.34     0.0     1.8     2.2     2.7     0.0     0.0     0.0     0.0     0.0     0.0     12.     24.     18.     16.     24.     24.     36.     10.      9.     15.     0.0     0.1     0.1     0.1     0.0     0.0     0.0     0.0     0.0     0.0     0.0     1.7     2.1     2.6     0.0     0.0     0.0     0.0     0.0     0.0     0.0     0.0     0.0     0.0     0.0     0.0     0.1     0.0     0.0     0.0
 2023 133    24    0.00    0.00    0.00    0.02     3.9   0.000   0.004   0.018   0.011     0.0     0.0     0.0     5.2     199    0.11    0.20    5.05    0.27     0.0     1.2     1.7     2.2     0.0     0.0     0.0     0.0     0.0     0.0     13.     26.     19.     17.     20.     20.     37.     10.      9.     15.     0.0     0.0     0.1     0.1     0.0     0.0     0.0     0.0     0.0     0.0     0.0     1.2     1.6     2.2     0.0     0.0     0.0     0.0     0.0     0.0     0.0     0.0     0.0     0.0     0.0     0.0     0.1     0.0     0.0     0.0
 2023 134    25    0.00    0.00    0.00    0.02     4.1   0.001   0.004   0.023   0.011     0.0     0.1     0.1     6.0     233    0.14    0.23    5.89    0.30     0.0     0.6     1.2     1.9     2.3     0.0     0.0     0.0     0.0     0.0     19.     36.     23.     20.     26.     22.     38.     10.     10.     16.     0.0     0.0     0.0     0.1     0.1     0.0     0.0     0.0     0.0     0.0     0.0     0.6     1.2     1.8     2.2     0.0     0.0     0.0     0.0     0.0     0.0     0.0     0.0     0.0     0.0     0.0     0.0     0.0     0.0     0.0
 2023 135    26    0.00    0.00    0.00    0.03     4.3   0.001   0.004   0.029   0.011     0.0     0.2     0.1     5.9     242    0.14    0.24    5.75    0.34     0.1     0.3     0.7     1.3     1.5     2.0     0.0     0.0     0.0     0.0     21.     38.     26.     22.     28.     23.     37.      9.      9.     15.     0.0     0.0     0.0     0.1     0.1     0.1     0.0     0.0     0.0     0.0     0.1     0.3     0.7     1.3     1.4     2.0     0.0     0.0     0.0     0.0     0.0     0.0     0.0     0.0     0.0     0.0     0.0     0.0     0.0     0.0
 2023 136    27    0.00    0.00    0.00    0.03     4.6   0.001   0.005   0.033   0.012     0.1     0.3     0.1     3.7     234    0.09    0.23    3.63    0.35     0.0     0.2     0.4     0.8     0.9     1.4     0.0     0.0     0.0     0.0     20.     36.     26.     23.     28.     24.     34.      9.      9.     14.     0.0     0.0     0.0     0.0     0.1     0.1     0.0     0.0     0.0     0.0     0.0     0.2     0.4     0.8     0.9     1.3     0.0     0.0     0.0     0.0     0.0     0.0     0.0     0.0     0.0     0.0     0.0     0.0     0.0     0.0
 2023 137    28    0.00    0.00    0.00    0.04     4.8   0.001   0.005   0.035   0.012     0.1     0.4     0.1     2.2     235    0.05    0.24    2.10    0.46     0.0     0.1     0.2     0.3     0.4     0.5     0.4     0.3     0.0     0.0     19.     36.     27.     25.     29.     25.     32.      8.      8.     13.     0.0     0.0     0.0     0.0     0.0     0.0     0.0     0.0     0.0     0.0     0.0     0.1     0.2     0.3     0.3     0.5     0.4     0.3     0.0     0.0     0.0     0.1     0.0     0.0     0.0     0.0     0.1     0.0     0.0     0.0
 2023 138    29    0.00    0.00    0.00    0.04     5.0   0.001   0.005   0.037   0.013     0.1     0.5     0.1     1.9     240    0.05    0.24    1.88    0.48     0.0     0.1     0.1     0.2     0.2     0.4     0.3     0.3     0.3     0.0     21.     36.     27.     26.     29.     26.     33.      8.      8.     13.     0.0     0.0     0.0     0.0     0.0     0.0     0.0     0.0     0.0     0.0     0.0     0.1     0.1     0.2     0.2     0.4     0.3     0.3     0.3     0.0     0.0     0.1     0.0     0.0     0.0     0.0     0.1     0.0     0.0     0.0
 2023 139    30    0.00    0.00    0.00    0.04     5.3   0.001   0.005   0.038   0.013     0.1     0.6     0.1     0.8     237    0.02    0.24    0.74    0.49     0.0     0.0     0.0     0.1     0.1     0.1     0.1     0.1     0.1     0.0     20.     35.     27.     26.     29.     26.     32.      8.      8.     13.     0.0     0.0     0.0     0.0     0.0     0.0     0.0     0.0     0.0     0.0     0.0     0.0     0.0     0.1     0.1     0.1     0.1     0.1     0.1     0.0     0.0     0.1     0.0     0.0     0.1     0.0     0.1     0.0     0.0     0.0
 2023 140    31    0.00    0.00    0.00    0.04     5.5   0.001   0.006   0.038   0.014     0.1     0.7     0.2     0.6     230    0.01    0.23    0.54    0.48     0.0     0.0     0.0     0.0     0.1     0.1     0.1     0.0     0.0     0.1     19.     34.     26.     25.     28.     26.     31.      8.      8.     13.     0.0     0.0     0.0     0.0     0.0     0.0     0.0     0.0     0.0     0.0     0.0     0.0     0.0     0.0     0.1     0.1     0.1     0.0     0.0     0.1     0.0     0.1     0.0     0.0     0.1     0.0     0.1     0.0     0.0     0.0
 2023 141    32    0.00    0.00    0.00    0.04     5.7   0.001   0.006   0.039   0.014     0.1     0.8     0.2     0.7     236    0.02    0.24    0.67    0.50     0.0     0.0     0.1     0.0     0.1     0.1     0.1     0.0     0.0     0.1     20.     35.     27.     26.     29.     26.     32.      8.      8.     13.     0.0     0.0     0.0     0.0     0.0     0.0     0.0     0.0     0.0     0.0     0.0     0.0     0.0     0.0     0.1     0.1     0.1     0.0     0.0     0.1     0.0     0.1     0.0     0.0     0.1     0.0     0.1     0.0     0.0     0.0
 2023 142    33    0.00    0.00    0.00    0.04     6.0   0.001   0.006   0.039   0.015     0.1     0.8     0.2     0.7     248    0.02    0.25    0.67    0.52     0.0     0.0     0.0     0.0     0.1     0.1     0.1     0.0     0.0     0.1     20.     40.     28.     27.     30.     27.     34.      8.      8.     13.     0.0     0.0     0.0     0.0     0.0     0.0     0.0     0.0     0.0     0.0     0.0     0.0     0.0     0.0     0.1     0.1     0.1     0.0     0.0     0.1     0.0     0.1     0.0     0.0     0.1     0.0     0.1     0.0     0.0     0.0
 2023 143    34    0.00    0.01    0.00    0.04     6.3   0.001   0.006   0.040   0.015     0.1     0.9     0.2     0.7     259    0.02    0.26    0.66    0.55     0.0     0.0     0.0     0.0     0.1     0.1     0.1     0.0     0.0     0.1     21.     41.     30.     28.     32.     29.     35.      9.      8.     14.     0.0     0.0     0.0     0.0     0.0     0.0     0.0     0.0     0.0     0.0     0.0     0.0     0.0     0.0     0.1     0.1     0.1     0.0     0.0     0.1     0.0     0.1     0.0     0.0     0.1     0.1     0.1     0.0     0.0     0.0
 2023 144    35    0.00    0.01    0.00    0.04     6.5   0.001   0.007   0.041   0.016     0.1     0.9     0.2     0.7     270    0.02    0.27    0.65    0.57     0.0     0.0     0.0     0.0     0.1     0.1     0.1     0.1     0.0     0.1     22.     42.     33.     29.     33.     30.     37.      9.      9.     14.     0.0     0.0     0.0     0.0     0.0     0.0     0.0     0.0     0.0     0.0     0.0     0.0     0.0     0.0     0.1     0.1     0.1     0.0     0.0     0.1     0.0     0.1     0.1     0.0     0.1     0.1     0.1     0.0     0.0     0.0
 2023 145    36    0.00    0.01    0.00    0.04     6.8   0.001   0.007   0.041   0.016     0.1     1.0     0.2     0.7     301    0.02    0.30    0.66    0.63     0.0     0.0     0.0     0.0     0.1     0.1     0.2     0.1     0.1     0.1     24.     47.     37.     33.     37.     33.     41.     10.     10.     16.     0.0     0.0     0.0     0.0     0.0     0.0     0.0     0.0     0.0     0.0     0.0     0.0     0.0     0.0     0.1     0.1     0.2     0.1     0.1     0.1     0.0     0.1     0.1     0.1     0.1     0.1     0.1     0.0     0.0     0.0
 2023 146    37    0.00    0.01    0.00    0.04     7.2   0.001   0.007   0.042   0.017     0.1     1.0     0.2     0.7     334    0.02    0.33    0.69    0.70     0.0     0.0     0.0     0.0     0.1     0.1     0.2     0.1     0.1     0.1     27.     51.     40.     39.     40.     36.     46.     11.     11.     17.     0.0     0.1     0.0     0.0     0.0     0.0     0.1     0.0     0.0     0.0     0.0     0.0     0.0     0.0     0.1     0.1     0.2     0.1     0.1     0.1     0.0     0.1     0.1     0.1     0.1     0.1     0.1     0.0     0.0     0.1
 2023 147    38    0.00    0.01    0.00    0.04     7.4   0.001   0.007   0.044   0.017     0.0     0.2     0.0     1.5     285    0.04    0.29    1.50    0.50     0.0     0.0     0.0     0.0     0.5     0.4     0.2     0.1     0.1     0.1     13.     32.     28.     31.     40.     37.     48.     12.     11.     18.     0.0     0.0     0.0     0.0     0.1     0.0     0.1     0.0     0.0     0.0     0.0     0.0     0.0     0.0     0.5     0.4     0.2     0.1     0.1     0.1     0.0     0.0     0.0     0.0     0.1     0.1     0.1     0.0     0.0     0.1
 2023 148    39    0.00    0.01    0.00    0.05     7.8   0.001   0.008   0.046   0.018     0.1     0.5     0.1     2.6     306    0.08    0.31    2.55    0.53     0.0     0.0     0.0     0.0     0.9     0.7     0.4     0.2     0.2     0.1     22.     42.     30.     30.     39.     36.     49.     12.     12.     19.     0.0     0.0     0.0     0.0     0.1     0.1     0.1     0.0     0.0     0.0     0.0     0.0     0.0     0.0     0.8     0.7     0.4     0.2     0.2     0.1     0.0     0.0     0.0     0.0     0.1     0.1     0.1     0.0     0.0     0.1
 2023 149    40    0.00    0.01    0.00    0.06     8.0   0.001   0.008   0.054   0.019     0.0     0.2     0.1     7.8     272    0.24    0.27    7.51    0.49     0.0     0.0     0.0     0.0     2.9     2.2     1.0     0.6     0.4     0.3     16.     33.     25.     24.     32.     32.     50.     12.     12.     20.     0.0     0.0     0.0     0.0     0.1     0.1     0.1     0.0     0.0     0.0     0.0     0.0     0.0     0.0     2.8     2.2     1.0     0.5     0.4     0.3     0.0     0.0     0.0     0.0     0.1     0.1     0.1     0.0     0.0     0.1
 2023 150    41    0.00    0.01    0.00    0.06     8.3   0.002   0.008   0.062   0.019     0.1     0.4     0.1     8.6     311    0.26    0.31    8.38    0.54     0.0     0.0     0.0     0.0     2.1     2.4     1.4     0.9     0.7     0.5     22.     45.     30.     28.     37.     33.     51.     13.     12.     20.     0.0     0.0     0.0     0.0     0.1     0.1     0.1     0.0     0.0     0.0     0.0     0.0     0.0     0.0     2.0     2.3     1.4     0.9     0.7     0.5     0.0     0.0     0.0     0.0     0.1     0.1     0.1     0.0     0.0     0.1
 2023 151    42    0.00    0.01    0.00    0.07     8.7   0.002   0.009   0.066   0.020     0.1     0.8     0.2     4.0     369    0.09    0.37    3.86    0.64     0.1     0.2     0.3     0.3     0.7     0.9     0.5     0.3     0.3     0.2     29.     56.     41.     39.     45.     40.     53.     13.     13.     21.     0.0     0.1     0.0     0.0     0.1     0.1     0.1     0.0     0.0     0.0     0.1     0.2     0.2     0.3     0.6     0.9     0.5     0.3     0.3     0.2     0.0     0.1     0.0     0.0     0.1     0.1     0.1     0.0     0.0     0.1
 2023 152    43    0.00    0.01    0.00    0.07     9.1   0.002   0.009   0.067   0.020     0.2     1.1     0.3     1.4     404    0.03    0.40    1.41    0.77     0.0     0.1     0.1     0.1     0.2     0.3     0.2     0.1     0.1     0.1     33.     61.     47.     44.     49.     45.     56.     14.     14.     22.     0.0     0.1     0.0     0.0     0.1     0.1     0.1     0.0     0.0     0.0     0.0     0.1     0.1     0.1     0.2     0.3     0.2     0.1     0.1     0.1     0.1     0.1     0.1     0.1     0.1     0.1     0.2     0.0     0.0     0.1
 2023 153    44    0.00    0.01    0.00    0.07     9.5   0.002   0.010   0.068   0.021     0.2     1.1     0.3     0.8     413    0.02    0.41    0.74    0.84     0.0     0.0     0.0     0.0     0.1     0.1     0.2     0.1     0.0     0.1     36.     61.     48.     45.     50.     45.     57.     14.     14.     23.     0.0     0.1     0.0     0.0     0.1     0.0     0.1     0.0     0.0     0.0     0.0     0.0     0.0     0.0     0.1     0.1     0.2     0.1     0.0     0.1     0.1     0.1     0.1     0.1     0.1     0.1     0.2     0.0     0.0     0.1
 2023 154    45    0.00    0.01    0.00    0.07     9.9   0.002   0.010   0.069   0.022     0.2     1.1     0.3     0.7     421    0.02    0.42    0.70    0.87     0.0     0.0     0.0     0.0     0.0     0.1     0.2     0.1     0.0     0.1     34.     66.     47.     45.     50.     46.     58.     15.     14.     24.     0.0     0.1     0.0     0.0     0.1     0.0     0.1     0.0     0.0     0.0     0.0     0.0     0.0     0.0     0.0     0.1     0.2     0.1     0.0     0.1     0.1     0.1     0.1     0.1     0.1     0.1     0.2     0.0     0.0     0.1
 2023 155    46    0.00    0.01    0.00    0.07    10.3   0.002   0.010   0.071   0.023     0.0     0.2     0.1     2.4     339    0.05    0.34    2.38    0.57     0.0     0.0     0.6     0.4     0.2     0.5     0.3     0.2     0.1     0.1     17.     36.     32.     36.     46.     43.     57.     14.     14.     23.     0.0     0.0     0.0     0.0     0.0     0.1     0.1     0.0     0.0     0.0     0.0     0.0     0.6     0.4     0.2     0.4     0.3     0.2     0.1     0.1     0.0     0.0     0.0     0.0     0.1     0.1     0.2     0.0     0.0     0.1
 2023 156    47    0.00    0.01    0.00    0.07    10.7   0.002   0.011   0.072   0.023     0.1     0.7     0.2     1.0     379    0.02    0.38    1.01    0.67     0.0     0.0     0.2     0.1     0.1     0.2     0.1     0.1     0.0     0.1     26.     51.     41.     41.     47.     43.     56.     14.     14.     23.     0.0     0.1     0.0     0.0     0.0     0.0     0.1     0.0     0.0     0.0     0.0     0.0     0.2     0.1     0.1     0.2     0.1     0.1     0.0     0.1     0.0     0.0     0.0     0.0     0.1     0.1     0.2     0.0     0.0     0.1
 2023 157    48    0.00    0.02    0.00    0.08    11.0   0.002   0.011   0.073   0.024     0.2     0.8     0.2     1.3     387    0.03    0.39    1.32    0.69     0.0     0.0     0.2     0.2     0.1     0.3     0.2     0.1     0.1     0.1     28.     56.     42.     40.     47.     43.     57.     14.     14.     24.     0.0     0.1     0.0     0.0     0.0     0.1     0.1     0.0     0.0     0.0     0.0     0.0     0.2     0.2     0.1     0.3     0.2     0.1     0.1     0.1     0.0     0.1     0.0     0.0     0.1     0.1     0.2     0.0     0.0     0.1
 2023 158    49    0.00    0.02    0.01    0.08    18.9   0.002   0.019   0.074   0.035     0.7     1.1     1.0     0.8    7875    0.02    7.87    0.77   11.40     0.0     0.0     0.1     0.1     0.0     0.1     0.2     0.0     0.1     0.1   3194.   4370.     45.     43.     48.     44.     58.     15.     14.     24.     3.2     4.4     0.0     0.0     0.0     0.0     0.1     0.0     0.0     0.0     0.0     0.0     0.1     0.1     0.0     0.1     0.2     0.0     0.1     0.1     4.3     6.5     0.1     0.1     0.1     0.1     0.2     0.0     0.0     0.1
 2023 159    50    0.00    0.02    0.01    0.08    27.9   0.002   0.028   0.075   0.051     1.4     1.2     2.2     0.7    9012    0.02    9.01    0.66   15.45     0.0     0.0     0.0     0.0     0.0     0.1     0.2     0.0     0.1     0.1   3697.   4996.     47.     44.     48.     45.     59.     15.     15.     25.     3.7     5.0     0.0     0.0     0.0     0.0     0.1     0.0     0.0     0.0     0.0     0.0     0.0     0.0     0.0     0.1     0.2     0.0     0.1     0.1     6.3     8.5     0.1     0.1     0.1     0.1     0.2     0.0     0.0     0.1
 2023 160    51    0.01    0.02    0.01    0.08    36.4   0.002   0.036   0.076   0.066     2.0     1.2     3.2     0.7    8483    0.02    8.48    0.66   14.57     0.0     0.0     0.0     0.0     0.0     0.1     0.2     0.0     0.1     0.1   3432.   4696.     67.     50.     51.     47.     62.     16.     15.     26.     3.4     4.7     0.1     0.0     0.1     0.0     0.1     0.0     0.0     0.0     0.0     0.0     0.0     0.0     0.0     0.1     0.2     0.0     0.1     0.1     5.8     8.0     0.1     0.1     0.1     0.1     0.2     0.0     0.0     0.1
 2023 161    52    0.01    0.02    0.01    0.08    44.0   0.002   0.044   0.076   0.079     2.5     1.2     4.0     0.7    7585    0.02    7.58    0.68   13.05     0.0     0.0     0.0     0.0     0.0     0.1     0.2     0.0     0.1     0.1   3019.   4187.     75.     51.     54.     49.     65.     17.     16.     27.     3.0     4.2     0.1     0.1     0.1     0.1     0.1     0.0     0.0     0.0     0.0     0.0     0.0     0.0     0.0     0.1     0.2     0.0     0.1     0.1     5.1     7.1     0.1     0.1     0.1     0.1     0.2     0.0     0.0     0.1
 2023 162    53    0.01    0.02    0.02    0.08    50.1   0.002   0.050   0.077   0.089     2.8     1.3     4.6     0.7    6055    0.02    6.06    0.67   10.46     0.0     0.0     0.0     0.0     0.0     0.1     0.2     0.0     0.1     0.1   2358.   3320.     74.     49.     53.     49.     66.     17.     16.     28.     2.4     3.3     0.1     0.0     0.1     0.1     0.1     0.0     0.0     0.0     0.0     0.0     0.0     0.0     0.0     0.1     0.2     0.0     0.1     0.1     4.0     5.6     0.1     0.1     0.1     0.1     0.2     0.0     0.0     0.1
 2023 163    54    0.02    0.02    0.02    0.08    54.6   0.002   0.055   0.078   0.097     3.0     1.3     5.0     0.7    4581    0.02    4.58    0.66    7.96     0.0     0.0     0.0     0.0     0.0     0.1     0.2     0.0     0.1     0.1   1738.   2483.     68.     46.     51.     48.     64.     16.     16.     27.     1.7     2.5     0.1     0.0     0.1     0.0     0.1     0.0     0.0     0.0     0.0     0.0     0.0     0.0     0.0     0.1     0.2     0.0     0.1     0.1     2.9     4.2     0.1     0.1     0.1     0.1     0.2     0.0     0.0     0.1
 2023 164    55    0.02    0.02    0.03    0.08    57.9   0.002   0.058   0.078   0.103     3.1     1.3     5.2     0.6    3296    0.02    3.30    0.63    5.78     0.0     0.0     0.0     0.0     0.0     0.1     0.2     0.0     0.1     0.1   1210.   1756.     59.     42.     47.     44.     59.     15.     15.     26.     1.2     1.8     0.1     0.0     0.0     0.0     0.1     0.0     0.0     0.0     0.0     0.0     0.0     0.0     0.0     0.1     0.2     0.0     0.1     0.1     2.1     3.0     0.1     0.1     0.1     0.1     0.2     0.0     0.0     0.1
 2023 165    56    0.02    0.03    0.03    0.08    60.3   0.002   0.060   0.079   0.107     3.1     1.3     5.2     0.6    2419    0.02    2.42    0.59    4.29     0.0     0.0     0.0     0.0     0.0     0.0     0.2     0.0     0.1     0.1    857.   1259.     51.     38.     43.     41.     55.     14.     14.     24.     0.9     1.3     0.1     0.0     0.0     0.0     0.1     0.0     0.0     0.0     0.0     0.0     0.0     0.0     0.0     0.0     0.2     0.0     0.1     0.1     1.5     2.1     0.1     0.1     0.1     0.1     0.2     0.0     0.0     0.1
 2023 166    57    0.02    0.03    0.04    0.08    62.2   0.002   0.062   0.079   0.110     3.1     1.3     5.2     0.6    1826    0.02    1.83    0.55    3.28     0.0     0.0     0.0     0.0     0.0     0.0     0.2     0.0     0.1     0.1    622.    924.     46.     35.     40.     38.     51.     13.     13.     23.     0.6     0.9     0.0     0.0     0.0     0.0     0.1     0.0     0.0     0.0     0.0     0.0     0.0     0.0     0.0     0.0     0.2     0.0     0.1     0.1     1.1     1.6     0.1     0.1     0.1     0.1     0.1     0.0     0.0     0.1
 2023 167    58    0.03    0.03    0.05    0.08    63.7   0.002   0.064   0.080   0.113     3.0     1.3     5.1     0.6    1529    0.02    1.53    0.54    2.79     0.0     0.0     0.0     0.0     0.0     0.0     0.2     0.0     0.1     0.1    500.    750.     44.     35.     40.     38.     51.     13.     13.     23.     0.5     0.8     0.0     0.0     0.0     0.0     0.1     0.0     0.0     0.0     0.0     0.0     0.0     0.0     0.0     0.0     0.2     0.0     0.1     0.1     0.9     1.3     0.1     0.1     0.1     0.1     0.1     0.0     0.0     0.1
 2023 168    59    0.03    0.03    0.05    0.08    65.0   0.002   0.065   0.080   0.116     2.9     1.3     4.9     0.6    1315    0.02    1.32    0.55    2.44     0.0     0.0     0.0     0.0     0.0     0.0     0.2     0.0     0.1     0.1    411.    622.     44.     36.     41.     39.     52.     14.     14.     23.     0.4     0.6     0.0     0.0     0.0     0.0     0.1     0.0     0.0     0.0     0.0     0.0     0.0     0.0     0.0     0.0     0.2     0.0     0.1     0.1     0.7     1.1     0.1     0.1     0.1     0.1     0.2     0.0     0.0     0.1
 2023 169    60    0.03    0.03    0.05    0.08    66.2   0.002   0.066   0.081   0.118     2.8     1.4     4.8     0.6    1171    0.02    1.17    0.56    2.21     0.0     0.0     0.0     0.0     0.0     0.0     0.2     0.0     0.1     0.1    346.    528.     45.     38.     44.     41.     55.     14.     14.     24.     0.3     0.5     0.0     0.0     0.0     0.0     0.1     0.0     0.0     0.0     0.0     0.0     0.0     0.0     0.0     0.0     0.2     0.0     0.1     0.1     0.6     0.9     0.1     0.1     0.1     0.1     0.2     0.0     0.0     0.1
 2023 170    61    0.04    0.03    0.06    0.08    67.2   0.002   0.067   0.082   0.120     2.7     1.4     4.6     0.6    1047    0.02    1.05    0.58    2.02     0.0     0.0     0.0     0.0     0.0     0.0     0.2     0.0     0.1     0.1    287.    443.     48.     41.     47.     44.     59.     15.     15.     25.     0.3     0.4     0.0     0.0     0.0     0.0     0.1     0.0     0.0     0.0     0.0     0.0     0.0     0.0     0.0     0.0     0.2     0.0     0.1     0.1     0.5     0.8     0.1     0.1     0.1     0.1     0.2     0.0     0.0     0.1
 2023 171    62    0.04    0.03    0.06    0.08    68.2   0.002   0.068   0.082   0.122     2.6     1.4     4.4     0.6     949    0.02    0.95    0.59    1.89     0.0     0.0     0.0     0.0     0.0     0.0     0.2     0.1     0.1     0.1    236.    371.     51.     44.     51.     48.     64.     16.     16.     27.     0.2     0.4     0.1     0.0     0.1     0.0     0.1     0.0     0.0     0.0     0.0     0.0     0.0     0.0     0.0     0.0     0.2     0.0     0.1     0.1     0.4     0.7     0.1     0.1     0.1     0.1     0.2     0.0     0.0     0.1
 2023 172    63    0.04    0.03    0.07    0.08    69.0   0.002   0.069   0.083   0.123     2.5     1.4     4.2     0.6     839    0.02    0.84    0.58    1.71     0.0     0.0     0.0     0.0     0.0     0.0     0.2     0.1     0.1     0.1    186.    297.     52.     46.     54.     50.     67.     17.     17.     28.     0.2     0.3     0.1     0.0     0.1     0.0     0.1     0.0     0.0     0.0     0.0     0.0     0.0     0.0     0.0     0.0     0.2     0.1     0.1     0.1     0.4     0.5     0.1     0.1     0.1     0.1     0.2     0.1     0.1     0.1
 2023 173    64    0.04    0.04    0.07    0.09    69.8   0.002   0.070   0.083   0.125     2.3     1.4     4.0     0.6     759    0.02    0.76    0.58    1.58     0.0     0.0     0.0     0.0     0.0     0.0     0.2     0.1     0.1     0.1    146.    238.     53.     49.     57.     53.     71.     18.     18.     30.     0.1     0.2     0.1     0.0     0.1     0.1     0.1     0.0     0.0     0.0     0.0     0.0     0.0     0.0     0.0     0.0     0.1     0.1     0.1     0.1     0.3     0.4     0.1     0.1     0.1     0.1     0.2     0.1     0.1     0.1
 2023 174    65    0.04    0.04    0.07    0.09    70.4   0.002   0.070   0.084   0.126     0.5     0.3     0.9     0.6     624    0.02    0.62    0.57    1.13     0.0     0.0     0.0     0.0     0.0     0.0     0.1     0.1     0.1     0.1     64.    170.     55.     50.     59.     55.     74.     19.     19.     31.     0.1     0.2     0.1     0.1     0.1     0.1     0.1     0.0     0.0     0.0     0.0     0.0     0.0     0.0     0.0     0.0     0.1     0.1     0.1     0.1     0.0     0.2     0.1     0.1     0.1     0.1     0.2     0.1     0.1     0.1
 2023 175    66    0.04    0.04    0.07    0.09    71.0   0.002   0.071   0.084   0.127     0.7     0.4     1.1     0.6     604    0.02    0.60    0.55    1.11     0.0     0.0     0.0     0.0     0.0     0.0     0.1     0.1     0.1     0.1     63.    148.     49.     51.     60.     56.     76.     19.     19.     33.     0.1     0.1     0.0     0.1     0.1     0.1     0.1     0.0     0.0     0.0     0.0     0.0     0.0     0.0     0.0     0.0     0.1     0.1     0.1     0.1     0.0     0.2     0.1     0.1     0.1     0.1     0.2     0.1     0.1     0.1
 2023 176    67    0.05    0.04    0.08    0.09    71.6   0.002   0.072   0.085   0.128     1.7     1.2     2.8     0.5     607    0.02    0.61    0.50    1.20     0.0     0.0     0.0     0.0     0.0     0.0     0.1     0.1     0.1     0.1     79.    137.     54.     49.     58.     55.     74.     19.     19.     32.     0.1     0.1     0.1     0.0     0.1     0.1     0.1     0.0     0.0     0.0     0.0     0.0     0.0     0.0     0.0     0.0     0.1     0.1     0.1     0.1     0.1     0.2     0.1     0.1     0.1     0.1     0.2     0.1     0.1     0.1
 2023 177    68    0.05    0.04    0.08    0.09    72.2   0.002   0.072   0.085   0.130     2.0     1.5     3.5     0.5     553    0.02    0.55    0.46    1.16     0.0     0.0     0.0     0.0     0.0     0.0     0.0     0.1     0.1     0.1     74.    109.     50.     46.     55.     52.     70.     18.     18.     31.     0.1     0.1     0.0     0.0     0.1     0.1     0.1     0.0     0.0     0.0     0.0     0.0     0.0     0.0     0.0     0.0     0.0     0.1     0.1     0.1     0.1     0.2     0.1     0.1     0.1     0.1     0.2     0.1     0.1     0.1
 2023 178    69    0.05    0.04    0.08    0.09    72.7   0.002   0.073   0.086   0.131     1.9     1.5     3.2     0.5     505    0.02    0.50    0.44    1.07     0.0     0.0     0.0     0.0     0.0     0.0     0.0     0.1     0.1     0.1     59.     92.     47.     44.     52.     49.     68.     18.     18.     30.     0.1     0.1     0.0     0.0     0.1     0.0     0.1     0.0     0.0     0.0     0.0     0.0     0.0     0.0     0.0     0.0     0.0     0.1     0.1     0.1     0.1     0.2     0.1     0.1     0.1     0.1     0.2     0.1     0.1     0.1
 2023 179    70    0.05    0.04    0.09    0.09    73.2   0.002   0.073   0.086   0.132     1.7     1.4     3.0     0.5     503    0.02    0.50    0.45    1.07     0.0     0.0     0.0     0.0     0.0     0.0     0.0     0.1     0.1     0.1     53.     87.     48.     46.     54.     51.     69.     18.     18.     31.     0.1     0.1     0.0     0.0     0.1     0.1     0.1     0.0     0.0     0.0     0.0     0.0     0.0     0.0     0.0     0.0     0.0     0.1     0.1     0.1     0.1     0.1     0.1     0.1     0.1     0.1     0.2     0.1     0.1     0.1
 2023 180    71    0.05    0.04    0.09    0.09    73.7   0.002   0.074   0.087   0.133     1.6     1.4     2.7     0.5     519    0.02    0.52    0.46    1.12     0.0     0.0     0.0     0.0     0.0     0.0     0.0     0.1     0.1     0.1     50.     85.     51.     48.     57.     54.     73.     19.     19.     32.     0.1     0.1     0.1     0.0     0.1     0.1     0.1     0.0     0.0     0.0     0.0     0.0     0.0     0.0     0.0     0.0     0.0     0.1     0.1     0.1     0.1     0.1     0.1     0.1     0.1     0.1     0.2     0.1     0.1     0.1
 2023 181    72    0.05    0.04    0.09    0.09    77.3   0.002   0.077   0.087   0.139     0.8     0.7     1.4     0.5    3609    0.02    3.61    0.47    6.33     0.0     0.0     0.0     0.0     0.0     0.0     0.0     0.1     0.1     0.1     34.   3180.     52.     50.     59.     55.     75.     20.     20.     33.     0.0     3.2     0.1     0.0     0.1     0.1     0.1     0.0     0.0     0.0     0.0     0.0     0.0     0.0     0.0     0.0     0.0     0.1     0.1     0.1     0.0     5.4     0.1     0.1     0.1     0.1     0.2     0.1     0.1     0.1
 2023 182    73    0.05    0.05    0.09    0.09    80.0   0.002   0.080   0.088   0.142     0.5     0.5     0.9     0.5    2741    0.02    2.74    0.47    2.77     0.0     0.0     0.0     0.0     0.0     0.0     0.0     0.1     0.1     0.1     29.   2315.     52.     50.     59.     56.     76.     20.     20.     34.     0.0     2.3     0.1     0.1     0.1     0.1     0.1     0.0     0.0     0.0     0.0     0.0     0.0     0.0     0.0     0.0     0.0     0.1     0.1     0.1     0.0     1.8     0.1     0.1     0.1     0.1     0.2     0.1     0.1     0.1
 2023 183    74    0.06    0.05    0.09    0.09    82.5   0.002   0.083   0.088   0.146     1.3     1.1     2.1     0.5    2479    0.02    2.48    0.47    3.81     0.0     0.0     0.0     0.0     0.0     0.0     0.0     0.1     0.1     0.1     42.   1926.    163.     50.     60.     56.     76.     20.     20.     34.     0.0     1.9     0.2     0.1     0.1     0.1     0.1     0.0     0.0     0.0     0.0     0.0     0.0     0.0     0.0     0.0     0.0     0.0     0.1     0.1     0.0     2.7     0.3     0.1     0.1     0.1     0.2     0.1     0.1     0.1
 2023 184    75    0.06    0.05    0.10    0.09    84.5   0.002   0.084   0.089   0.149     1.7     1.4     2.9     0.5    1924    0.02    1.92    0.47    3.50     0.0     0.0     0.0     0.0     0.0     0.0     0.0     0.0     0.1     0.1     47.   1332.    192.     59.     59.     55.     75.     20.     20.     34.     0.0     1.3     0.2     0.1     0.1     0.1     0.1     0.0     0.0     0.0     0.0     0.0     0.0     0.0     0.0     0.0     0.0     0.0     0.1     0.1     0.1     2.3     0.3     0.1     0.1     0.1     0.2     0.1     0.1     0.1
 2023 185    76    0.06    0.05    0.10    0.09    85.6   0.002   0.086   0.089   0.152     1.7     1.4     2.8     0.5    1179    0.02    1.18    0.46    2.24     0.0     0.0     0.0     0.0     0.0     0.0     0.0     0.0     0.1     0.1     43.    615.    168.     63.     58.     54.     75.     20.     20.     34.     0.0     0.6     0.2     0.1     0.1     0.1     0.1     0.0     0.0     0.0     0.0     0.0     0.0     0.0     0.0     0.0     0.0     0.0     0.1     0.1     0.1     1.0     0.3     0.1     0.1     0.1     0.2     0.1     0.1     0.1
 2023 186    77    0.06    0.05    0.10    0.09    86.5   0.002   0.086   0.090   0.153     1.7     1.3     2.7     0.5     830    0.02    0.83    0.46    1.65     0.0     0.0     0.0     0.0     0.0     0.0     0.0     0.0     0.1     0.1     40.    298.    143.     62.     57.     53.     73.     19.     19.     33.     0.0     0.3     0.1     0.1     0.1     0.1     0.1     0.0     0.0     0.0     0.0     0.0     0.0     0.0     0.0     0.0     0.0     0.0     0.1     0.1     0.1     0.5     0.2     0.1     0.1     0.1     0.2     0.1     0.1     0.1
 2023 187    78    0.06    0.05    0.10    0.09    87.1   0.002   0.087   0.090   0.155     1.6     1.3     2.6     0.5     688    0.02    0.69    0.44    1.40     0.0     0.0     0.0     0.0     0.0     0.0     0.0     0.0     0.1     0.1     36.    196.    125.     57.     54.     51.     70.     18.     19.     32.     0.0     0.2     0.1     0.1     0.1     0.1     0.1     0.0     0.0     0.0     0.0     0.0     0.0     0.0     0.0     0.0     0.0     0.0     0.1     0.1     0.1     0.3     0.2     0.1     0.1     0.1     0.2     0.1     0.1     0.1
 2023 188    79    0.06    0.05    0.11    0.09    87.7   0.003   0.088   0.090   0.156     0.4     0.4     0.7     0.4     580    0.02    0.58    0.43    1.11     0.0     0.0     0.0     0.0     0.0     0.0     0.0     0.0     0.1     0.1     19.    138.    109.     53.     51.     48.     67.     18.     18.     31.     0.0     0.1     0.1     0.1     0.1     0.0     0.1     0.0     0.0     0.0     0.0     0.0     0.0     0.0     0.0     0.0     0.0     0.0     0.1     0.1     0.0     0.2     0.2     0.1     0.1     0.1     0.2     0.1     0.1     0.1
 2023 189    80    0.06    0.05    0.11    0.09    88.3   0.003   0.088   0.091   0.157     0.5     0.4     0.8     0.4     540    0.02    0.54    0.42    0.97     0.0     0.0     0.0     0.0     0.0     0.0     0.0     0.0     0.1     0.1     21.    122.     88.     51.     50.     48.     66.     17.     18.     31.     0.0     0.1     0.1     0.1     0.1     0.0     0.1     0.0     0.0     0.0     0.0     0.0     0.0     0.0     0.0     0.0     0.0     0.0     0.1     0.1     0.0     0.1     0.1     0.1     0.1     0.1     0.2     0.1     0.1     0.1
 2023 190    81    0.06    0.05    0.11    0.09    88.7   0.003   0.089   0.091   0.157     0.4     0.3     0.7     0.4     417    0.02    0.42    0.40    0.68     0.0     0.0     0.0     0.0     0.0     0.0     0.0     0.0     0.1     0.1     18.     76.     57.     35.     44.     42.     59.     16.     16.     28.     0.0     0.1     0.1     0.0     0.0     0.0     0.1     0.0     0.0     0.0     0.0     0.0     0.0     0.0     0.0     0.0     0.0     0.0     0.1     0.1     0.0     0.0     0.0     0.0     0.1     0.1     0.2     0.0     0.1     0.1
 2023 191    82    0.07    0.05    0.11    0.09    89.1   0.003   0.089   0.092   0.158     1.3     1.0     2.1     0.4     458    0.01    0.46    0.39    0.87     0.0     0.0     0.0     0.0     0.0     0.0     0.0     0.0     0.1     0.1     28.     97.     70.     39.     43.     41.     57.     15.     16.     27.     0.0     0.1     0.1     0.0     0.0     0.0     0.1     0.0     0.0     0.0     0.0     0.0     0.0     0.0     0.0     0.0     0.0     0.0     0.1     0.1     0.0     0.1     0.1     0.1     0.1     0.1     0.2     0.0     0.0     0.1
 2023 192    83    0.07    0.05    0.11    0.10    89.6   0.003   0.090   0.093   0.159     0.4     0.4     0.7     1.5     450    0.02    0.45    1.47    0.70     0.3     0.8     0.0     0.0     0.0     0.0     0.0     0.0     0.1     0.1     22.     77.     60.     40.     49.     46.     64.     17.     17.     30.     0.0     0.1     0.1     0.0     0.0     0.0     0.1     0.0     0.0     0.0     0.3     0.8     0.0     0.0     0.0     0.0     0.0     0.0     0.1     0.1     0.0     0.0     0.0     0.0     0.1     0.1     0.2     0.0     0.1     0.1
 2023 193    84    0.07    0.06    0.11    0.10    90.2   0.003   0.090   0.094   0.160     1.2     1.1     2.0     0.8     565    0.02    0.57    0.73    1.06     0.1     0.2     0.1     0.0     0.0     0.0     0.0     0.0     0.1     0.1     38.    113.     82.     52.     57.     52.     71.     19.     19.     33.     0.0     0.1     0.1     0.1     0.1     0.1     0.1     0.0     0.0     0.0     0.1     0.2     0.1     0.0     0.0     0.0     0.0     0.0     0.1     0.1     0.0     0.1     0.1     0.1     0.1     0.1     0.2     0.1     0.1     0.1
 2023 194    85    0.07    0.06    0.11    0.10    90.8   0.003   0.091   0.094   0.161     1.5     1.4     2.5     0.4     615    0.02    0.61    0.43    1.28     0.0     0.0     0.0     0.0     0.0     0.0     0.0     0.0     0.1     0.1     47.    125.     88.     61.     60.     55.     75.     20.     20.     34.     0.0     0.1     0.1     0.1     0.1     0.1     0.1     0.0     0.0     0.0     0.0     0.0     0.0     0.0     0.0     0.0     0.0     0.0     0.1     0.1     0.1     0.2     0.1     0.1     0.1     0.1     0.2     0.1     0.1     0.1
 2023 195    86    0.07    0.06    0.11    0.10    91.3   0.003   0.091   0.095   0.162     0.4     0.3     0.6     0.5     525    0.02    0.52    0.45    0.83     0.0     0.0     0.0     0.0     0.0     0.0     0.0     0.0     0.1     0.1     28.     75.     52.     48.     65.     61.     83.     22.     22.     37.     0.0     0.1     0.1     0.0     0.1     0.1     0.1     0.0     0.0     0.0     0.0     0.0     0.0     0.0     0.0     0.0     0.0     0.0     0.1     0.1     0.0     0.0     0.0     0.0     0.1     0.1     0.2     0.1     0.1     0.1
 2023 196    87    0.07    0.06    0.12    0.10    91.8   0.003   0.092   0.095   0.163     0.4     0.3     0.6     0.7     532    0.02    0.53    0.64    0.76     0.0     0.0     0.0     0.0     0.0     0.0     0.0     0.0     0.2     0.2     30.     78.     56.     43.     62.     59.     85.     22.     22.     39.     0.0     0.1     0.1     0.0     0.1     0.1     0.1     0.0     0.0     0.0     0.0     0.0     0.0     0.0     0.0     0.0     0.0     0.0     0.2     0.2     0.0     0.0     0.0     0.0     0.1     0.1     0.2     0.1     0.1     0.1
 2023 197    88    0.07    0.06    0.12    0.10    92.4   0.003   0.092   0.096   0.164     1.0     0.9     1.6     0.4     602    0.02    0.60    0.41    1.03     0.0     0.0     0.0     0.0     0.0     0.0     0.0     0.0     0.1     0.2     45.    101.     74.     57.     66.     60.     82.     22.     22.     38.     0.0     0.1     0.1     0.1     0.1     0.1     0.1     0.0     0.0     0.0     0.0     0.0     0.0     0.0     0.0     0.0     0.0     0.0     0.1     0.2     0.0     0.1     0.1     0.0     0.1     0.1     0.2     0.1     0.1     0.1
 2023 198    89    0.07    0.06    0.12    0.10    93.0   0.003   0.093   0.096   0.165     1.3     1.2     2.2     0.4     611    0.02    0.61    0.41    1.20     0.0     0.0     0.0     0.0     0.0     0.0     0.0     0.0     0.1     0.2     48.    103.     75.     59.     66.     60.     82.     22.     22.     38.     0.0     0.1     0.1     0.1     0.1     0.1     0.1     0.0     0.0     0.0     0.0     0.0     0.0     0.0     0.0     0.0     0.0     0.0     0.1     0.2     0.1     0.2     0.1     0.1     0.1     0.1     0.2     0.1     0.1     0.1
 2023 199    90    0.07    0.06    0.12    0.10    93.6   0.003   0.094   0.097   0.166     1.3     1.2     2.1     0.4     605    0.02    0.60    0.40    1.28     0.0     0.0     0.0     0.0     0.0     0.0     0.0     0.0     0.0     0.2     48.    100.     75.     65.     63.     58.     80.     21.     22.     37.     0.0     0.1     0.1     0.1     0.1     0.1     0.1     0.0     0.0     0.0     0.0     0.0     0.0     0.0     0.0     0.0     0.0     0.0     0.0     0.2     0.1     0.2     0.1     0.1     0.1     0.1     0.2     0.1     0.1     0.1
 2023 200    91    0.07    0.06    0.12    0.10    94.2   0.003   0.094   0.097   0.168     1.2     1.2     2.0     0.4     581    0.02    0.58    0.41    1.24     0.0     0.0     0.0     0.0     0.0     0.0     0.0     0.0     0.0     0.2     44.     92.     69.     61.     63.     58.     80.     21.     22.     38.     0.0     0.1     0.1     0.1     0.1     0.1     0.1     0.0     0.0     0.0     0.0     0.0     0.0     0.0     0.0     0.0     0.0     0.0     0.0     0.2     0.1     0.2     0.1     0.1     0.1     0.1     0.2     0.1     0.1     0.1
 2023 201    92    0.08    0.06    0.13    0.10    94.8   0.003   0.095   0.097   0.169     1.2     1.1     1.9     0.4     584    0.02    0.58    0.41    1.25     0.0     0.0     0.0     0.0     0.0     0.0     0.0     0.0     0.0     0.2     44.     89.     67.     60.     64.     60.     82.     22.     22.     39.     0.0     0.1     0.1     0.1     0.1     0.1     0.1     0.0     0.0     0.0     0.0     0.0     0.0     0.0     0.0     0.0     0.0     0.0     0.0     0.2     0.1     0.2     0.1     0.1     0.1     0.1     0.2     0.1     0.1     0.1
 2023 202    93    0.08    0.06    0.13    0.10    97.0   0.003   0.097   0.098   0.172     0.3     0.3     0.4     0.4    2149    0.02    2.15    0.40    3.01     0.0     0.0     0.0     0.0     0.0     0.0     0.0     0.0     0.0     0.2     22.   1693.     58.     57.     63.     58.     81.     22.     22.     38.     0.0     1.7     0.1     0.1     0.1     0.1     0.1     0.0     0.0     0.0     0.0     0.0     0.0     0.0     0.0     0.0     0.0     0.0     0.0     0.2     0.0     2.0     0.1     0.1     0.1     0.1     0.2     0.1     0.1     0.1
 2023 203    94    0.08    0.06    0.13    0.10    98.3   0.003   0.098   0.098   0.174     0.8     0.7     1.3     0.4    1345    0.02    1.35    0.39    2.24     0.0     0.0     0.0     0.0     0.0     0.0     0.0     0.0     0.0     0.2     34.    900.     54.     52.     59.     56.     77.     21.     21.     37.     0.0     0.9     0.1     0.1     0.1     0.1     0.1     0.0     0.0     0.0     0.0     0.0     0.0     0.0     0.0     0.0     0.0     0.0     0.0     0.2     0.0     1.3     0.1     0.1     0.1     0.1     0.2     0.1     0.1     0.1
 2023 204    95    0.08    0.06    0.13    0.10    99.3   0.003   0.099   0.099   0.176     0.4     0.3     0.6     0.4     997    0.02    1.00    0.38    1.55     0.0     0.0     0.0     0.0     0.0     0.0     0.0     0.0     0.0     0.2     26.    518.     97.     48.     60.     56.     78.     21.     21.     37.     0.0     0.5     0.1     0.0     0.1     0.1     0.1     0.0     0.0     0.0     0.0     0.0     0.0     0.0     0.0     0.0     0.0     0.0     0.0     0.2     0.0     0.6     0.1     0.1     0.1     0.1     0.2     0.1     0.1     0.1
 2023 205    96    0.08    0.07    0.13    0.10   100.2   0.003   0.100   0.099   0.177     0.9     0.8     1.4     0.4     905    0.02    0.90    0.38    1.61     0.0     0.0     0.0     0.0     0.0     0.0     0.0     0.0     0.0     0.2     39.    360.    135.     55.     61.     58.     80.     21.     22.     38.     0.0     0.4     0.1     0.1     0.1     0.1     0.1     0.0     0.0     0.0     0.0     0.0     0.0     0.0     0.0     0.0     0.0     0.0     0.0     0.2     0.0     0.5     0.2     0.1     0.1     0.1     0.2     0.1     0.1     0.1
 2023 206    97    0.08    0.07    0.13    0.10   101.1   0.003   0.101   0.099   0.179     1.3     1.1     2.1     0.4     906    0.02    0.91    0.41    1.80     0.0     0.0     0.0     0.0     0.0     0.0     0.0     0.0     0.0     0.2     45.    302.    160.     70.     64.     60.     83.     22.     23.     40.     0.0     0.3     0.2     0.1     0.1     0.1     0.1     0.0     0.0     0.0     0.0     0.0     0.0     0.0     0.0     0.0     0.0     0.0     0.0     0.2     0.1     0.5     0.3     0.1     0.1     0.1     0.2     0.1     0.1     0.1
 2023 207    98    0.08    0.07    0.13    0.10   101.9   0.003   0.102   0.100   0.180     0.3     0.3     0.6     1.1     822    0.02    0.82    1.03    1.31     0.6     0.0     0.0     0.0     0.0     0.0     0.0     0.0     0.0     0.2     31.    213.    144.     72.     72.     66.     92.     24.     25.     43.     0.0     0.2     0.1     0.1     0.1     0.1     0.1     0.0     0.0     0.1     0.6     0.0     0.0     0.0     0.0     0.0     0.0     0.0     0.0     0.2     0.0     0.2     0.1     0.1     0.1     0.1     0.3     0.1     0.1     0.1
 2023 208    99    0.08    0.07    0.13    0.10   102.9   0.003   0.103   0.101   0.182     0.9     0.9     1.5     0.7     968    0.02    0.97    0.64    1.86     0.2     0.0     0.0     0.0     0.0     0.0     0.0     0.0     0.0     0.2     53.    236.    187.     95.     80.     73.    100.     27.     27.     47.     0.1     0.2     0.2     0.1     0.1     0.1     0.1     0.0     0.0     0.1     0.2     0.0     0.0     0.0     0.0     0.0     0.0     0.0     0.0     0.2     0.0     0.3     0.3     0.2     0.1     0.1     0.3     0.1     0.1     0.1
 2023 209   100    0.08    0.07    0.14    0.10   103.9   0.003   0.104   0.101   0.184     1.3     1.2     2.1     0.5    1015    0.02    1.02    0.46    2.06     0.0     0.0     0.0     0.0     0.0     0.0     0.0     0.0     0.0     0.2     62.    252.    178.    101.     87.     78.    106.     28.     29.     50.     0.1     0.3     0.2     0.1     0.1     0.1     0.1     0.0     0.0     0.1     0.0     0.0     0.0     0.0     0.0     0.0     0.0     0.0     0.0     0.2     0.1     0.4     0.3     0.2     0.2     0.1     0.3     0.1     0.1     0.2
 2023 210   101    0.08    0.07    0.14    0.10   104.9   0.003   0.105   0.102   0.186     1.3     1.2     2.1     0.5     953    0.02    0.95    0.45    1.97     0.0     0.0     0.0     0.0     0.0     0.0     0.0     0.0     0.0     0.2     63.    209.    153.     97.     89.     79.    108.     29.     29.     51.     0.1     0.2     0.2     0.1     0.1     0.1     0.1     0.0     0.0     0.1     0.0     0.0     0.0     0.0     0.0     0.0     0.0     0.0     0.0     0.2     0.1     0.4     0.3     0.2     0.2     0.1     0.3     0.1     0.1     0.2
 2023 211   102    0.08    0.07    0.14    0.11   105.6   0.003   0.106   0.102   0.188     0.3     0.3     0.5     0.5     772    0.02    0.77    0.45    1.43     0.0     0.0     0.0     0.0     0.0     0.0     0.0     0.0     0.0     0.2     32.    134.    108.     80.     85.     76.    105.     28.     29.     50.     0.0     0.1     0.1     0.1     0.1     0.1     0.1     0.0     0.0     0.1     0.0     0.0     0.0     0.0     0.0     0.0     0.0     0.0     0.0     0.2     0.0     0.1     0.1     0.1     0.2     0.1     0.3     0.1     0.1     0.2
 2023 212   103    0.08    0.07    0.14    0.11   106.4   0.003   0.106   0.103   0.189     0.9     0.8     1.5     0.5     793    0.02    0.79    0.45    1.63     0.0     0.0     0.0     0.0     0.0     0.0     0.0     0.0     0.0     0.2     50.    136.    111.     82.     83.     75.    104.     28.     28.     49.     0.1     0.1     0.1     0.1     0.1     0.1     0.1     0.0     0.0     0.1     0.0     0.0     0.0     0.0     0.0     0.0     0.0     0.0     0.0     0.2     0.0     0.2     0.2     0.1     0.2     0.1     0.3     0.1     0.1     0.2
 2023 213   104    0.08    0.07    0.14    0.11   107.1   0.003   0.107   0.103   0.190     0.3     0.3     0.5     0.5     648    0.02    0.65    0.44    1.13     0.0     0.0     0.0     0.0     0.0     0.0     0.0     0.0     0.0     0.2     32.     82.     68.     61.     80.     73.    101.     27.     28.     49.     0.0     0.1     0.1     0.1     0.1     0.1     0.1     0.0     0.0     0.1     0.0     0.0     0.0     0.0     0.0     0.0     0.0     0.0     0.0     0.2     0.0     0.0     0.0     0.0     0.1     0.1     0.3     0.1     0.1     0.2
 2023 214   105    0.09    0.07    0.14    0.11   107.8   0.003   0.108   0.104   0.192     0.8     0.7     1.3     0.5     667    0.02    0.67    0.43    1.14     0.0     0.0     0.0     0.0     0.0     0.0     0.0     0.0     0.0     0.2     48.    101.     70.     58.     76.     71.     98.     26.     27.     47.     0.0     0.1     0.1     0.1     0.1     0.1     0.1     0.0     0.0     0.1     0.0     0.0     0.0     0.0     0.0     0.0     0.0     0.0     0.0     0.2     0.0     0.1     0.0     0.0     0.1     0.1     0.3     0.1     0.1     0.1
 2023 215   106    0.09    0.07    0.14    0.12   110.3   0.004   0.110   0.112   0.194     0.3     0.3     0.5     9.4    2598    0.85    2.60    8.59    2.88     0.7     8.2     0.0     0.0     0.0     0.0     0.0     0.0     0.0     0.2     33.   2051.     68.     58.     74.     70.     98.     26.     27.     47.     0.0     2.9     0.1     0.1     0.1     0.1     0.1     0.0     0.0     0.1     0.7     7.4     0.0     0.0     0.0     0.0     0.0     0.0     0.0     0.2     0.0     1.9     0.0     0.0     0.1     0.1     0.3     0.1     0.1     0.1
 2023 216   107    0.09    0.07    0.14    0.13   112.3   0.005   0.112   0.124   0.196     0.3     0.4     0.5    13.1    1954    1.11    1.95   11.97    2.03     0.6    12.0     0.0     0.0     0.0     0.0     0.0     0.0     0.0     0.2     34.   1422.     60.     55.     72.     68.     98.     26.     27.     47.     0.0     2.5     0.1     0.1     0.1     0.1     0.1     0.0     0.0     0.1     0.6    10.9     0.0     0.0     0.0     0.0     0.0     0.0     0.0     0.2     0.0     1.1     0.0     0.0     0.1     0.1     0.3     0.1     0.1     0.1
 2023 217   108    0.09    0.07    0.14    0.15   113.6   0.006   0.114   0.139   0.198     0.3     0.4     0.5    16.0    1343    0.72    1.34   15.23    1.36     0.5     9.6     3.0     1.6     0.8     0.0     0.0     0.0     0.0     0.2     35.    760.    145.     45.     61.     61.     95.     25.     26.     46.     0.0     1.4     0.2     0.1     0.1     0.1     0.1     0.0     0.0     0.1     0.5     9.0     2.9     1.6     0.8     0.0     0.0     0.0     0.0     0.2     0.0     0.5     0.1     0.0     0.0     0.0     0.3     0.1     0.1     0.1
 2023 218   109    0.09    0.07    0.14    0.15   114.9   0.006   0.115   0.143   0.200     1.0     1.4     1.5     3.6    1293    0.10    1.29    3.46    1.74     0.2     1.7     0.6     0.3     0.2     0.1     0.0     0.0     0.0     0.1     51.    531.    199.    138.     73.     68.     94.     25.     25.     45.     0.1     0.6     0.2     0.1     0.1     0.1     0.1     0.0     0.0     0.1     0.2     1.6     0.6     0.3     0.2     0.1     0.0     0.0     0.0     0.1     0.0     0.5     0.2     0.1     0.1     0.1     0.3     0.1     0.1     0.1
 2023 219   110    0.09    0.08    0.15    0.15   116.0   0.006   0.116   0.144   0.201     1.4     2.3     2.0     0.7    1020    0.02    1.02    0.64    1.90     0.0     0.1     0.0     0.1     0.0     0.0     0.0     0.0     0.0     0.1     51.    281.    164.    143.     94.     65.     90.     24.     24.     43.     0.1     0.3     0.2     0.1     0.1     0.1     0.1     0.0     0.0     0.0     0.0     0.1     0.0     0.1     0.0     0.0     0.0     0.0     0.0     0.1     0.1     0.4     0.3     0.2     0.2     0.1     0.3     0.1     0.1     0.1
 2023 220   111    0.09    0.08    0.15    0.15   116.7   0.006   0.117   0.146   0.203     0.3     0.6     0.5     2.8     724    0.04    0.72    2.75    1.05     0.6     0.9     0.5     0.3     0.1     0.0     0.0     0.0     0.0     0.1     25.    131.    103.    108.     91.     61.     82.     22.     22.     40.     0.0     0.1     0.1     0.1     0.1     0.1     0.1     0.0     0.0     0.0     0.6     0.9     0.5     0.3     0.1     0.0     0.0     0.0     0.0     0.1     0.0     0.1     0.1     0.1     0.1     0.1     0.2     0.1     0.1     0.1
 2023 221   112    0.09    0.08    0.15    0.15   117.4   0.006   0.117   0.148   0.204     0.9     1.6     1.2     2.0     711    0.03    0.71    1.96    1.05     0.3     0.4     0.4     0.3     0.2     0.0     0.0     0.0     0.0     0.2     36.    133.     98.     97.     89.     59.     80.     21.     22.     39.     0.0     0.1     0.1     0.1     0.1     0.1     0.1     0.0     0.0     0.0     0.3     0.4     0.4     0.3     0.2     0.0     0.0     0.0     0.0     0.2     0.0     0.1     0.1     0.1     0.1     0.1     0.2     0.1     0.1     0.1
 2023 222   113    0.09    0.08    0.15    0.16   119.0   0.006   0.119   0.153   0.206     0.5     0.9     0.6     5.0    1641    0.28    1.64    4.72    2.07     0.5     3.2     0.3     0.3     0.2     0.0     0.0     0.0     0.0     0.2     27.   1090.     92.     91.     86.     59.     79.     20.     21.     38.     0.0     1.3     0.1     0.1     0.1     0.1     0.1     0.0     0.0     0.0     0.5     2.9     0.3     0.3     0.2     0.0     0.0     0.0     0.0     0.2     0.0     1.2     0.1     0.1     0.1     0.1     0.2     0.0     0.1     0.1
 2023 223   114    0.09    0.08    0.15    0.16   120.6   0.006   0.121   0.154   0.208     1.2     2.4     1.6     0.9    1515    0.03    1.51    0.91    2.64     0.2     0.2     0.1     0.1     0.0     0.0     0.0     0.0     0.0     0.2     39.    929.     99.     97.     89.     62.     81.     21.     22.     39.     0.0     0.9     0.1     0.1     0.1     0.1     0.1     0.0     0.0     0.0     0.2     0.2     0.1     0.1     0.0     0.0     0.0     0.0     0.0     0.2     0.0     1.5     0.1     0.1     0.2     0.1     0.2     0.1     0.1     0.1
 2023 224   115    0.09    0.09    0.15    0.16   121.8   0.006   0.122   0.154   0.211     1.7     3.4     2.2     0.4    1202    0.02    1.20    0.41    2.31     0.0     0.0     0.0     0.0     0.0     0.0     0.0     0.0     0.0     0.2     44.    555.    139.    102.     89.     65.     85.     22.     22.     40.     0.0     0.6     0.1     0.1     0.1     0.1     0.1     0.0     0.0     0.0     0.0     0.0     0.0     0.0     0.0     0.0     0.0     0.0     0.0     0.2     0.1     0.9     0.2     0.2     0.2     0.1     0.2     0.1     0.1     0.1
 2023 225   116    0.09    0.09    0.15    0.16   122.8   0.006   0.123   0.155   0.213     1.7     3.4     2.3     0.4    1043    0.02    1.04    0.42    2.06     0.0     0.0     0.0     0.0     0.0     0.0     0.0     0.0     0.0     0.2     50.    363.    149.     99.     92.     69.     92.     23.     24.     42.     0.0     0.4     0.1     0.1     0.1     0.1     0.1     0.0     0.0     0.0     0.0     0.0     0.0     0.0     0.0     0.0     0.0     0.0     0.0     0.2     0.1     0.6     0.3     0.2     0.2     0.1     0.3     0.1     0.1     0.1
 2023 226   117    0.10    0.09    0.16    0.16   123.7   0.006   0.124   0.155   0.214     1.7     3.3     2.2     0.4     896    0.02    0.90    0.41    1.81     0.0     0.0     0.0     0.0     0.0     0.0     0.0     0.0     0.0     0.2     45.    258.    138.     85.     85.     67.     90.     23.     23.     42.     0.0     0.3     0.1     0.1     0.1     0.1     0.1     0.0     0.0     0.0     0.0     0.0     0.0     0.0     0.0     0.0     0.0     0.0     0.0     0.2     0.1     0.4     0.2     0.1     0.2     0.1     0.3     0.1     0.1     0.1
 2023 227   118    0.10    0.10    0.16    0.16   124.5   0.006   0.124   0.156   0.216     1.6     3.2     2.2     0.4     795    0.02    0.79    0.40    1.63     0.0     0.0     0.0     0.0     0.0     0.0     0.0     0.0     0.0     0.2     41.    203.    124.     74.     78.     64.     87.     22.     23.     40.     0.0     0.2     0.1     0.1     0.1     0.1     0.1     0.0     0.0     0.0     0.0     0.0     0.0     0.0     0.0     0.0     0.0     0.0     0.0     0.2     0.1     0.3     0.2     0.1     0.1     0.1     0.2     0.1     0.1     0.1
 2023 228   119    0.10    0.10    0.16    0.16   125.2   0.006   0.125   0.156   0.218     1.6     3.1     2.2     0.4     709    0.02    0.71    0.39    1.47     0.0     0.0     0.0     0.0     0.0     0.0     0.0     0.0     0.0     0.2     37.    169.    106.     64.     71.     60.     83.     21.     22.     39.     0.0     0.2     0.1     0.1     0.1     0.1     0.1     0.0     0.0     0.0     0.0     0.0     0.0     0.0     0.0     0.0     0.0     0.0     0.0     0.2     0.1     0.3     0.2     0.1     0.1     0.1     0.2     0.1     0.1     0.1
 2023 229   120    0.10    0.10    0.16    0.16   125.9   0.006   0.126   0.156   0.219     1.5     2.9     2.1     0.4     712    0.02    0.71    0.40    1.49     0.0     0.0     0.0     0.0     0.0     0.0     0.0     0.0     0.0     0.2     38.    165.    101.     63.     72.     62.     86.     22.     23.     40.     0.0     0.2     0.1     0.1     0.1     0.1     0.1     0.0     0.0     0.0     0.0     0.0     0.0     0.0     0.0     0.0     0.0     0.0     0.0     0.2     0.1     0.3     0.2     0.1     0.1     0.1     0.2     0.1     0.1     0.1
 2023 230   121    0.10    0.10    0.16    0.16   126.5   0.006   0.126   0.157   0.220     0.4     0.7     0.5     0.4     576    0.02    0.58    0.40    1.00     0.0     0.0     0.0     0.0     0.0     0.0     0.0     0.0     0.0     0.2     20.     96.     68.     52.     69.     61.     86.     22.     22.     40.     0.0     0.1     0.1     0.1     0.1     0.1     0.1     0.0     0.0     0.0     0.0     0.0     0.0     0.0     0.0     0.0     0.0     0.0     0.0     0.2     0.0     0.0     0.0     0.1     0.1     0.1     0.2     0.1     0.1     0.1
 2023 231   122    0.10    0.10    0.17    0.16   127.2   0.006   0.127   0.157   0.221     1.0     1.9     1.4     0.4     718    0.02    0.72    0.42    1.34     0.0     0.0     0.0     0.0     0.0     0.0     0.0     0.0     0.0     0.2     37.    144.     92.     68.     77.     68.     96.     24.     25.     44.     0.0     0.1     0.1     0.1     0.1     0.1     0.1     0.0     0.0     0.1     0.0     0.0     0.0     0.0     0.0     0.0     0.0     0.0     0.0     0.2     0.0     0.1     0.1     0.1     0.1     0.1     0.3     0.1     0.1     0.1
 2023 232   123    0.10    0.11    0.17    0.16   128.0   0.006   0.128   0.158   0.223     1.5     2.6     2.0     0.5     820    0.02    0.82    0.44    1.72     0.0     0.0     0.0     0.0     0.0     0.0     0.0     0.0     0.0     0.2     49.    165.    112.     75.     86.     77.    108.     27.     27.     48.     0.0     0.2     0.1     0.1     0.1     0.1     0.1     0.0     0.0     0.1     0.0     0.0     0.0     0.0     0.0     0.0     0.0     0.0     0.0     0.2     0.1     0.3     0.2     0.1     0.2     0.1     0.3     0.1     0.1     0.1
 2023 233   124    0.11    0.11    0.17    0.16   128.9   0.006   0.129   0.158   0.225     1.4     2.5     2.0     0.5     872    0.02    0.87    0.46    1.85     0.0     0.0     0.0     0.0     0.0     0.0     0.0     0.0     0.0     0.2     58.    173.    110.     80.     92.     83.    117.     29.     29.     52.     0.1     0.2     0.1     0.1     0.1     0.1     0.1     0.0     0.0     0.1     0.0     0.0     0.0     0.0     0.0     0.0     0.0     0.0     0.0     0.2     0.1     0.3     0.2     0.1     0.2     0.2     0.3     0.1     0.1     0.2
 2023 234   125    0.11    0.11    0.17    0.16   129.6   0.006   0.130   0.159   0.226     0.3     0.6     0.5     0.5     721    0.02    0.72    0.47    1.26     0.0     0.0     0.0     0.0     0.0     0.0     0.0     0.0     0.0     0.2     32.     93.     66.     62.     94.     86.    121.     30.     31.     54.     0.0     0.1     0.1     0.1     0.1     0.1     0.1     0.0     0.0     0.1     0.0     0.0     0.0     0.0     0.0     0.0     0.0     0.0     0.0     0.2     0.0     0.0     0.0     0.0     0.1     0.2     0.3     0.1     0.1     0.2
 2023 235   126    0.11    0.11    0.17    0.17   130.5   0.006   0.131   0.159   0.228     1.0     1.6     1.4     0.5     907    0.02    0.91    0.48    1.67     0.0     0.0     0.0     0.0     0.0     0.0     0.0     0.0     0.0     0.2     60.    145.    102.     84.    104.     96.    134.     33.     33.     59.     0.1     0.1     0.1     0.1     0.1     0.1     0.1     0.0     0.0     0.1     0.0     0.0     0.0     0.0     0.0     0.0     0.0     0.0     0.0     0.2     0.1     0.1     0.1     0.1     0.2     0.2     0.4     0.1     0.1     0.2
 2023 236   127    0.11    0.11    0.17    0.17   131.5   0.006   0.131   0.159   0.230     1.3     2.2     1.9     0.5     945    0.02    0.95    0.48    1.98     0.0     0.0     0.0     0.0     0.0     0.0     0.0     0.0     0.0     0.2     67.    150.    108.     96.    104.     97.    137.     34.     34.     60.     0.1     0.2     0.1     0.1     0.1     0.1     0.1     0.0     0.0     0.1     0.0     0.0     0.0     0.0     0.0     0.0     0.0     0.0     0.0     0.2     0.1     0.2     0.2     0.2     0.2     0.2     0.4     0.1     0.1     0.2
 2023 237   128    0.11    0.12    0.17    0.17   132.4   0.006   0.132   0.160   0.232     1.3     2.1     2.0     0.5     938    0.02    0.94    0.48    2.01     0.0     0.0     0.0     0.0     0.0     0.0     0.0     0.0     0.0     0.2     69.    148.    109.     89.    103.     96.    137.     34.     34.     60.     0.1     0.1     0.1     0.1     0.1     0.1     0.1     0.0     0.0     0.1     0.0     0.0     0.0     0.0     0.0     0.0     0.0     0.0     0.0     0.2     0.1     0.3     0.2     0.2     0.2     0.2     0.4     0.1     0.1     0.2
 2023 238   129    0.11    0.12    0.18    0.17   133.3   0.006   0.133   0.160   0.234     1.3     2.0     1.9     0.5     874    0.02    0.87    0.48    1.90     0.0     0.0     0.0     0.0     0.0     0.0     0.0     0.0     0.0     0.2     61.    126.     96.     83.     99.     93.    134.     33.     33.     59.     0.1     0.1     0.1     0.1     0.1     0.1     0.1     0.0     0.0     0.1     0.0     0.0     0.0     0.0     0.0     0.0     0.0     0.0     0.0     0.2     0.1     0.2     0.2     0.1     0.2     0.2     0.4     0.1     0.1     0.2
 2023 239   130    0.11    0.12    0.18    0.17   134.0   0.006   0.134   0.161   0.235     1.2     1.9     1.9     0.5     748    0.02    0.75    0.45    1.64     0.0     0.0     0.0     0.0     0.0     0.0     0.0     0.0     0.0     0.2     49.    101.     78.     70.     85.     81.    118.     30.     30.     54.     0.0     0.1     0.1     0.1     0.1     0.1     0.1     0.0     0.0     0.1     0.0     0.0     0.0     0.0     0.0     0.0     0.0     0.0     0.0     0.2     0.1     0.2     0.1     0.1     0.2     0.1     0.3     0.1     0.1     0.2
 2023 240   131    0.11    0.12    0.18    0.17   134.7   0.006   0.135   0.161   0.237     1.2     1.8     1.9     0.4     659    0.02    0.66    0.42    1.46     0.0     0.0     0.0     0.0     0.0     0.0     0.0     0.0     0.0     0.2     42.     85.     67.     61.     75.     72.    107.     27.     27.     49.     0.0     0.1     0.1     0.1     0.1     0.1     0.1     0.0     0.0     0.1     0.0     0.0     0.0     0.0     0.0     0.0     0.0     0.0     0.0     0.1     0.1     0.1     0.1     0.1     0.1     0.1     0.3     0.1     0.1     0.1
 2023 241   132    0.11    0.12    0.18    0.17   135.3   0.006   0.135   0.162   0.238     1.2     1.7     1.8     0.4     605    0.02    0.61    0.40    1.35     0.0     0.0     0.0     0.0     0.0     0.0     0.0     0.0     0.0     0.1     38.     77.     60.     55.     69.     66.     99.     25.     25.     46.     0.0     0.1     0.1     0.1     0.1     0.1     0.1     0.0     0.0     0.1     0.0     0.0     0.0     0.0     0.0     0.0     0.0     0.0     0.0     0.1     0.1     0.1     0.1     0.1     0.1     0.1     0.3     0.1     0.1     0.1
 2023 242   133    0.11    0.12    0.18    0.17   135.8   0.006   0.136   0.162   0.239     0.3     0.4     0.4     0.4     495    0.02    0.49    0.38    0.98     0.0     0.0     0.0     0.0     0.0     0.0     0.0     0.0     0.0     0.1     19.     42.     40.     43.     64.     61.     93.     23.     24.     43.     0.0     0.0     0.0     0.0     0.1     0.1     0.1     0.0     0.0     0.0     0.0     0.0     0.0     0.0     0.0     0.0     0.0     0.0     0.0     0.1     0.0     0.0     0.0     0.0     0.1     0.1     0.3     0.1     0.1     0.1
 2023 243   134    0.12    0.12    0.18    0.17   136.3   0.007   0.136   0.162   0.240     0.7     1.0     1.2     0.4     530    0.02    0.53    0.37    1.08     0.0     0.0     0.0     0.0     0.0     0.0     0.0     0.0     0.0     0.1     30.     61.     49.     47.     62.     60.     91.     23.     23.     42.     0.0     0.1     0.0     0.0     0.1     0.1     0.1     0.0     0.0     0.0     0.0     0.0     0.0     0.0     0.0     0.0     0.0     0.0     0.0     0.1     0.0     0.0     0.1     0.1     0.1     0.1     0.3     0.1     0.1     0.1
 2023 244   135    0.12    0.13    0.18    0.17   136.8   0.007   0.137   0.163   0.241     0.3     0.4     0.4     0.4     521    0.02    0.52    0.38    0.91     0.0     0.0     0.0     0.0     0.0     0.0     0.0     0.0     0.0     0.1     24.     51.     39.     36.     65.     65.    100.     25.     25.     46.     0.0     0.1     0.0     0.0     0.1     0.1     0.1     0.0     0.0     0.0     0.0     0.0     0.0     0.0     0.0     0.0     0.0     0.0     0.0     0.1     0.0     0.0     0.0     0.0     0.1     0.1     0.3     0.1     0.1     0.1
 2023 245   136    0.12    0.13    0.19    0.17   137.5   0.007   0.138   0.163   0.242     0.8     1.0     1.2     0.4     674    0.02    0.67    0.37    1.25     0.0     0.0     0.0     0.0     0.0     0.0     0.0     0.0     0.0     0.1     44.     86.     65.     59.     79.     75.    112.     28.     28.     50.     0.0     0.1     0.1     0.1     0.1     0.1     0.1     0.0     0.0     0.1     0.0     0.0     0.0     0.0     0.0     0.0     0.0     0.0     0.0     0.1     0.0     0.1     0.1     0.1     0.1     0.1     0.3     0.1     0.1     0.1
 2023 246   137    0.12    0.13    0.19    0.17   138.3   0.007   0.138   0.164   0.244     1.1     1.4     1.7     0.6     760    0.02    0.76    0.62    1.58     0.0     0.1     0.1     0.1     0.0     0.0     0.0     0.0     0.0     0.1     54.    104.     80.     71.     86.     81.    121.     30.     30.     53.     0.1     0.1     0.1     0.1     0.1     0.1     0.1     0.0     0.0     0.1     0.0     0.1     0.1     0.1     0.0     0.0     0.0     0.0     0.0     0.1     0.1     0.1     0.1     0.1     0.2     0.1     0.3     0.1     0.1     0.2
 2023 247   138    0.12    0.13    0.19    0.17   139.1   0.007   0.139   0.164   0.246     1.1     1.3     1.8     0.4     835    0.02    0.84    0.39    1.80     0.0     0.0     0.0     0.0     0.0     0.0     0.0     0.0     0.0     0.1     61.    120.     92.     84.     92.     87.    128.     31.     31.     56.     0.1     0.1     0.1     0.1     0.1     0.1     0.1     0.0     0.0     0.1     0.0     0.0     0.0     0.0     0.0     0.0     0.0     0.0     0.0     0.1     0.1     0.2     0.2     0.1     0.2     0.2     0.4     0.1     0.1     0.2
 2023 248   139    0.12    0.13    0.19    0.17   140.0   0.007   0.140   0.165   0.248     1.0     1.3     1.8     0.4     848    0.02    0.85    0.40    1.84     0.0     0.0     0.0     0.0     0.0     0.0     0.0     0.0     0.0     0.1     59.    117.     91.     83.     95.     90.    133.     32.     32.     58.     0.1     0.1     0.1     0.1     0.1     0.1     0.1     0.0     0.0     0.1     0.0     0.0     0.0     0.0     0.0     0.0     0.0     0.0     0.0     0.1     0.1     0.2     0.2     0.1     0.2     0.2     0.4     0.1     0.1     0.2
 2023 249   140    0.12    0.13    0.19    0.17   140.6   0.007   0.141   0.165   0.249     0.2     0.3     0.4     0.4     607    0.02    0.61    0.37    1.12     0.0     0.0     0.0     0.0     0.0     0.0     0.0     0.0     0.0     0.1     25.     55.     46.     51.     79.     77.    115.     28.     29.     51.     0.0     0.1     0.0     0.1     0.1     0.1     0.1     0.0     0.0     0.1     0.0     0.0     0.0     0.0     0.0     0.0     0.0     0.0     0.0     0.1     0.0     0.0     0.0     0.0     0.1     0.1     0.3     0.1     0.1     0.1
 2023 250   141    0.12    0.13    0.19    0.17   141.2   0.007   0.141   0.165   0.250     0.7     0.8     1.1     0.3     593    0.01    0.59    0.33    1.14     0.0     0.0     0.0     0.0     0.0     0.0     0.0     0.0     0.0     0.1     35.     70.     56.     53.     69.     67.    101.     25.     26.     46.     0.0     0.1     0.1     0.1     0.1     0.1     0.1     0.0     0.0     0.0     0.0     0.0     0.0     0.0     0.0     0.0     0.0     0.0     0.0     0.1     0.0     0.1     0.0     0.1     0.1     0.1     0.3     0.1     0.1     0.1
 2023 251   142    0.12    0.13    0.19    0.17   141.7   0.007   0.142   0.166   0.251     0.9     1.1     1.6     0.3     577    0.01    0.58    0.31    1.22     0.0     0.0     0.0     0.0     0.0     0.0     0.0     0.0     0.0     0.1     37.     73.     57.     52.     65.     63.     96.     24.     24.     44.     0.0     0.1     0.1     0.1     0.1     0.1     0.1     0.0     0.0     0.0     0.0     0.0     0.0     0.0     0.0     0.0     0.0     0.0     0.0     0.1     0.1     0.1     0.1     0.1     0.1     0.1     0.3     0.1     0.1     0.1
 2023 252   143    0.12    0.13    0.20    0.17   142.3   0.007   0.142   0.166   0.252     1.0     1.1     1.7     0.3     549    0.01    0.55    0.30    1.21     0.0     0.0     0.0     0.0     0.0     0.0     0.0     0.0     0.0     0.1     36.     72.     57.     51.     59.     57.     89.     22.     23.     41.     0.0     0.1     0.1     0.1     0.1     0.1     0.1     0.0     0.0     0.0     0.0     0.0     0.0     0.0     0.0     0.0     0.0     0.0     0.0     0.1     0.1     0.1     0.1     0.1     0.1     0.1     0.2     0.1     0.1     0.1
 2023 253   144    0.12    0.13    0.20    0.17   142.8   0.007   0.143   0.166   0.257     1.0     1.1     1.7     0.3     531    0.01    0.53    0.30    4.31     0.0     0.0     0.0     0.0     0.0     0.0     0.0     0.0     0.0     0.1     34.     68.     54.     49.     58.     56.     87.     22.     22.     40.     0.0     0.1     0.1     0.0     0.1     0.1     0.1     0.0     0.0     0.0     0.0     0.0     0.0     0.0     0.0     0.0     0.0     0.0     0.0     0.1     0.2     0.4     0.3     0.3     0.4     0.4     0.9     0.2     0.2     0.4
 2023 254   145    0.12    0.13    0.20    0.17   143.3   0.007   0.143   0.167   0.259     0.2     0.2     0.3     0.3     467    0.01    0.47    0.30    2.58     0.0     0.0     0.0     0.0     0.0     0.0     0.0     0.0     0.0     0.1     18.     40.     36.     39.     59.     58.     90.     22.     23.     41.     0.0     0.0     0.0     0.0     0.1     0.1     0.1     0.0     0.0     0.0     0.0     0.0     0.0     0.0     0.0     0.0     0.0     0.0     0.0     0.1     0.0     0.0     0.0     0.1     0.2     0.3     0.8     0.2     0.2     0.4
 2023 255   146    0.12    0.14    0.20    0.17   143.8   0.007   0.144   0.167   0.262     0.6     0.6     1.0     0.3     512    0.01    0.51    0.28    2.41     0.0     0.0     0.0     0.0     0.0     0.0     0.0     0.0     0.0     0.1     29.     58.     47.     45.     59.     58.     89.     22.     23.     41.     0.0     0.1     0.0     0.0     0.1     0.1     0.1     0.0     0.0     0.0     0.0     0.0     0.0     0.0     0.0     0.0     0.0     0.0     0.0     0.1     0.0     0.1     0.1     0.1     0.3     0.2     0.6     0.2     0.2     0.3
 2023 256   147    0.12    0.14    0.20    0.17   144.3   0.007   0.144   0.167   0.264     0.8     0.8     1.5     0.3     504    0.01    0.50    0.27    2.11     0.0     0.0     0.0     0.0     0.0     0.0     0.0     0.0     0.0     0.0     31.     61.     48.     44.     56.     55.     85.     21.     22.     40.     0.0     0.1     0.0     0.0     0.1     0.1     0.1     0.0     0.0     0.0     0.0     0.0     0.0     0.0     0.0     0.0     0.0     0.0     0.0     0.0     0.1     0.2     0.1     0.1     0.2     0.2     0.5     0.1     0.1     0.2
 2023 257   148    0.13    0.14    0.20    0.17   144.8   0.007   0.145   0.167   0.266     0.9     0.9     1.7     0.3     508    0.01    0.51    0.27    1.81     0.0     0.0     0.0     0.0     0.0     0.0     0.0     0.0     0.0     0.0     31.     62.     52.     48.     55.     54.     84.     21.     22.     39.     0.0     0.1     0.1     0.0     0.1     0.1     0.1     0.0     0.0     0.0     0.0     0.0     0.0     0.0     0.0     0.0     0.0     0.0     0.0     0.0     0.1     0.2     0.1     0.1     0.2     0.2     0.4     0.1     0.1     0.2
 2023 258   149    0.13    0.14    0.20    0.17   145.3   0.007   0.145   0.168   0.267     0.9     0.9     1.7     0.3     485    0.01    0.48    0.26    1.42     0.0     0.0     0.0     0.0     0.0     0.0     0.0     0.0     0.0     0.0     31.     62.     48.     44.     52.     51.     80.     20.     21.     38.     0.0     0.1     0.0     0.0     0.1     0.1     0.1     0.0     0.0     0.0     0.0     0.0     0.0     0.0     0.0     0.0     0.0     0.0     0.0     0.0     0.1     0.1     0.1     0.1     0.1     0.1     0.3     0.1     0.1     0.1
 2023 259   150    0.13    0.14    0.20    0.17   145.7   0.007   0.146   0.168   0.268     0.2     0.2     0.4     0.3     459    0.01    0.46    0.27    1.00     0.0     0.0     0.0     0.0     0.0     0.0     0.0     0.0     0.0     0.0     17.     52.     42.     40.     54.     53.     83.     20.     21.     38.     0.0     0.1     0.0     0.0     0.1     0.1     0.1     0.0     0.0     0.0     0.0     0.0     0.0     0.0     0.0     0.0     0.0     0.0     0.0     0.0     0.0     0.1     0.0     0.1     0.1     0.1     0.3     0.1     0.1     0.1
 2023 260   151    0.13    0.14    0.21    0.17   146.2   0.007   0.146   0.168   0.269     0.6     0.6     1.2     0.3     500    0.01    0.50    0.27    1.06     0.0     0.0     0.0     0.0     0.0     0.0     0.0     0.0     0.0     0.0     27.     60.     47.     44.     57.     56.     86.     21.     22.     40.     0.0     0.1     0.0     0.0     0.1     0.1     0.1     0.0     0.0     0.0     0.0     0.0     0.0     0.0     0.0     0.0     0.0     0.0     0.0     0.0     0.0     0.1     0.1     0.1     0.1     0.1     0.2     0.1     0.1     0.1
 2023 261   152    0.13    0.14    0.21    0.18   146.8   0.007   0.147   0.168   0.270     0.8     0.8     1.6     0.3     517    0.01    0.52    0.27    1.13     0.0     0.0     0.0     0.0     0.0     0.0     0.0     0.0     0.0     0.0     31.     67.     48.     48.     57.     56.     87.     21.     22.     40.     0.0     0.1     0.0     0.0     0.1     0.1     0.1     0.0     0.0     0.0     0.0     0.0     0.0     0.0     0.0     0.0     0.0     0.0     0.0     0.0     0.0     0.1     0.1     0.1     0.1     0.1     0.2     0.1     0.1     0.1
 2023 262   153    0.13    0.14    0.21    0.18   147.3   0.007   0.147   0.169   0.271     0.9     0.9     1.9     0.3     548    0.01    0.55    0.27    1.21     0.0     0.0     0.0     0.0     0.0     0.0     0.0     0.0     0.0     0.0     34.     69.     55.     50.     60.     59.     92.     22.     23.     42.     0.0     0.1     0.1     0.0     0.1     0.1     0.1     0.0     0.0     0.0     0.0     0.0     0.0     0.0     0.0     0.0     0.0     0.0     0.0     0.0     0.1     0.1     0.1     0.1     0.1     0.1     0.3     0.1     0.1     0.1
 2023 263   154    0.13    0.14    0.21    0.18   147.9   0.007   0.148   0.169   0.273     0.9     0.8     1.9     0.3     561    0.01    0.56    0.28    1.24     0.0     0.0     0.0     0.0     0.0     0.0     0.0     0.0     0.0     0.0     38.     69.     55.     50.     62.     61.     94.     23.     24.     43.     0.0     0.1     0.1     0.1     0.1     0.1     0.1     0.0     0.0     0.0     0.0     0.0     0.0     0.0     0.0     0.0     0.0     0.0     0.0     0.0     0.1     0.1     0.1     0.1     0.1     0.1     0.3     0.1     0.1     0.1
 2023 264   155    0.13    0.14    0.21    0.18   148.4   0.007   0.148   0.169   0.274     0.7     0.6     1.5     0.3     553    0.01    0.55    0.28    1.20     0.0     0.0     0.0     0.0     0.0     0.0     0.0     0.0     0.0     0.0     32.     64.     51.     51.     63.     62.     96.     23.     24.     43.     0.0     0.1     0.1     0.1     0.1     0.1     0.1     0.0     0.0     0.0     0.0     0.0     0.0     0.0     0.0     0.0     0.0     0.0     0.0     0.0     0.0     0.1     0.1     0.1     0.1     0.1     0.3     0.1     0.1     0.1
 2023 265   156    0.13    0.14    0.21    0.18   149.0   0.007   0.149   0.170   0.275     0.9     0.7     1.7     0.3     559    0.01    0.56    0.28    1.24     0.0     0.0     0.0     0.0     0.0     0.0     0.0     0.0     0.0     0.0     34.     65.     56.     50.     63.     62.     96.     23.     24.     43.     0.0     0.1     0.1     0.1     0.1     0.1     0.1     0.0     0.0     0.0     0.0     0.0     0.0     0.0     0.0     0.0     0.0     0.0     0.0     0.0     0.0     0.1     0.1     0.1     0.1     0.1     0.3     0.1     0.1     0.1
 2023 266   157    0.13    0.14    0.22    0.18   149.5   0.007   0.150   0.170   0.276     0.9     0.8     1.8     0.3     560    0.01    0.56    0.28    1.24     0.0     0.0     0.0     0.0     0.0     0.0     0.0     0.0     0.0     0.0     34.     70.     54.     50.     63.     61.     95.     23.     24.     43.     0.0     0.1     0.1     0.0     0.1     0.1     0.1     0.0     0.0     0.0     0.0     0.0     0.0     0.0     0.0     0.0     0.0     0.0     0.0     0.0     0.1     0.1     0.1     0.1     0.1     0.1     0.3     0.1     0.1     0.1
 2023 267   158    0.13    0.14    0.22    0.18   150.1   0.007   0.150   0.170   0.278     0.9     0.7     1.8     0.3     529    0.01    0.53    0.28    1.18     0.0     0.0     0.0     0.0     0.0     0.0     0.0     0.0     0.0     0.0     31.     64.     51.     47.     59.     58.     91.     22.     23.     42.     0.0     0.1     0.1     0.0     0.1     0.1     0.1     0.0     0.0     0.0     0.0     0.0     0.0     0.0     0.0     0.0     0.0     0.0     0.0     0.0     0.1     0.1     0.1     0.1     0.1     0.1     0.3     0.1     0.1     0.1
 2023 268   159    0.13    0.14    0.22    0.18   150.6   0.007   0.151   0.170   0.279     0.8     0.7     1.8     0.3     507    0.01    0.51    0.27    1.13     0.0     0.0     0.0     0.0     0.0     0.0     0.0     0.0     0.0     0.0     32.     60.     48.     44.     56.     56.     87.     21.     22.     40.     0.0     0.1     0.0     0.0     0.1     0.1     0.1     0.0     0.0     0.0     0.0     0.0     0.0     0.0     0.0     0.0     0.0     0.0     0.0     0.0     0.1     0.1     0.1     0.1     0.1     0.1     0.2     0.1     0.1     0.1
