*SOIL ORGANIC N BALANCE

*DSSAT Cropping System Model Ver. 4.8.2.000 -release  APR 04, 2025 03:03:53

*RUN   1        : farm_23                   MZCER048 UNLI2309    1
 MODEL          : MZCER048 - Maize
 EXPERIMENT     : UNLI2309 MZ PIO1366
 DATA PATH      :
 TREATMENT  1   : farm_23                   MZCER048
  
!                 ----- STATE VARS ------   ---- ADDED TODAY ---- REMOVED     DAILY     CUMUL
@YEAR DOY   DAS      HUMN     FON    RESN   ARESN   ASENN AIMMOBN RMINERP      DBAL      CBAL
 2023 109     0  12681.62   0.000   0.000   0.000   0.000   0.000   0.000     0.000     0.000
 2023 110     1  12681.48   0.000  55.000  55.000   0.000   0.000   0.144     0.001     0.001
 2023 111     2  12681.36   0.000  55.000   0.000   0.000   0.000   0.117    -0.000     0.001
 2023 112     3  12681.28   0.000  55.000   0.000   0.000   0.000   0.075    -0.000     0.001
 2023 113     4  12681.26   0.000  55.000   0.000   0.000   0.000   0.025    -0.001     0.000
 2023 114     5  12681.26   0.000  55.000   0.000   0.000   0.000   0.001     0.001     0.001
 2023 115     6  12681.26   0.000  55.000   0.000   0.000   0.000   0.000     0.000     0.001
 2023 116     7  12681.26   0.000  55.000   0.000   0.000   0.000   0.000     0.000     0.001
 2023 117     8  12681.25   0.000  55.000   0.000   0.000   0.000   0.006     0.000     0.001
 2023 118     9  12681.21   0.000  55.000   0.000   0.000   0.000   0.048    -0.000     0.000
 2023 119    10  12681.14   0.000  55.000   0.000   0.000   0.000   0.066    -0.000     0.000
 2023 120    11  12681.05   0.000  55.000   0.000   0.000   0.000   0.084    -0.000     0.000
 2023 121    12  12680.97   0.000  55.000   0.000   0.000   0.000   0.087     0.001     0.001
 2023 122    13  12680.91   0.000  55.000   0.000   0.000   0.000   0.062    -0.000     0.001
 2023 123    14  12680.86   0.000  55.000   0.000   0.000   0.000   0.043    -0.000     0.001
 2023 124    15  12680.78   0.000  55.000   0.000   0.000   0.000   0.084     0.000     0.001
 2023 125    16  12680.65   0.000  55.000   0.000   0.000   0.000   0.129     0.000     0.001
 2023 126    17  12680.46   0.000  55.000   0.000   0.000   0.000   0.190    -0.001     0.001
 2023 127    18  12680.22   0.000  55.000   0.000   0.000   0.000   0.239     0.000     0.001
 2023 128    19  12679.94   0.000  55.000   0.000   0.000   0.000   0.285     0.000     0.001
 2023 129    20  12679.64   0.000  55.000   0.000   0.000   0.000   0.300     0.001     0.002
 2023 130    21  12679.34   0.000  55.000   0.000   0.000   0.000   0.296    -0.001     0.001
 2023 131    22  12679.05   0.000  55.000   0.000   0.000   0.000   0.288     0.002     0.002
 2023 132    23  12678.75   0.000  55.000   0.000   0.000   0.000   0.298    -0.000     0.002
 2023 133    24  12678.47   0.000  55.000   0.000   0.000   0.000   0.287     0.000     0.002
 2023 134    25  12678.18   0.000  55.000   0.000   0.000   0.000   0.290    -0.001     0.001
 2023 135    26  12677.91   0.000  55.000   0.000   0.000   0.000   0.263    -0.000     0.001
 2023 136    27  12677.69   0.000  55.000   0.000   0.000   0.000   0.225     0.000     0.001
 2023 137    28  12677.48   0.000  55.000   0.000   0.000   0.000   0.209     0.000     0.002
 2023 138    29  12677.26   0.000  55.000   0.000   0.000   0.000   0.217    -0.001     0.001
 2023 139    30  12677.05   0.000  55.000   0.000   0.000   0.000   0.214    -0.000     0.001
 2023 140    31  12676.84   0.000  55.000   0.000   0.000   0.000   0.207    -0.000     0.001
 2023 141    32  12676.62   0.000  55.000   0.000   0.000   0.000   0.222     0.000     0.001
 2023 142    33  12676.38   0.000  55.000   0.000   0.000   0.000   0.241    -0.000     0.001
 2023 143    34  12676.12   0.000  55.000   0.000   0.000   0.000   0.260     0.001     0.001
 2023 144    35  12675.84   0.000  55.000   0.000   0.000   0.000   0.274    -0.001     0.000
 2023 145    36  12675.52   0.002  55.000   0.000   0.002   0.000   0.318     0.002     0.002
 2023 146    37  12675.17   0.004  55.000   0.000   0.002   0.000   0.354     0.000     0.003
 2023 147    38  12674.81   0.006  55.000   0.000   0.002   0.000   0.356     0.001     0.004
 2023 148    39  12674.46   0.009  55.000   0.000   0.002   0.000   0.356    -0.000     0.004
 2023 149    40  12674.10   0.012  55.000   0.000   0.003   0.000   0.355     0.000     0.004
 2023 150    41  12673.74   0.015  55.000   0.000   0.003   0.000   0.365     0.000     0.004
 2023 151    42  12673.36   0.019  55.000   0.000   0.004   0.000   0.374     0.001     0.005
 2023 152    43  12672.97   0.024  55.000   0.000   0.005   0.000   0.391     0.000     0.005
 2023 153    44  12672.58   0.029  55.000   0.000   0.005   0.000   0.396    -0.000     0.005
 2023 154    45  12672.17   0.034  55.000   0.000   0.006   0.000   0.402     0.000     0.005
 2023 155    46  12671.79   0.040  55.000   0.000   0.006   0.000   0.386     0.002     0.007
 2023 156    47  12671.41   0.047  55.000   0.000   0.006   0.000   0.381     0.000     0.007
 2023 157    48  12671.02   0.053  55.000   0.000   0.006   0.000   0.384     0.000     0.007
 2023 158    49  12670.64   0.060  55.000   0.000   0.007   0.000   0.387     0.000     0.007
 2023 159    50  12670.24   0.074  55.000   0.000   0.014   0.000   0.396     0.007     0.014
 2023 160    51  12669.82   0.090  55.000   0.000   0.016   0.000   0.418     0.002     0.016
 2023 161    52  12669.38   0.108  55.000   0.000   0.018   0.000   0.441     0.003     0.019
 2023 162    53  12668.94   0.127  55.000   0.000   0.019   0.000   0.441     0.001     0.020
 2023 163    54  12668.51   0.149  55.000   0.000   0.022   0.000   0.425     0.003     0.023
 2023 164    55  12668.12   0.174  55.000   0.000   0.025   0.000   0.390     0.003     0.026
 2023 165    56  12667.77   0.204  55.000   0.000   0.030   0.000   0.356     0.003     0.029
 2023 166    57  12667.44   0.238  55.000   0.000   0.035   0.000   0.326     0.005     0.034
 2023 167    58  12667.11   0.275  55.000   0.000   0.038   0.000   0.329     0.004     0.038
 2023 168    59  12666.78   0.314  55.000   0.000   0.041   0.000   0.339     0.004     0.042
 2023 169    60  12666.42   0.356  55.000   0.000   0.044   0.000   0.361     0.002     0.044
 2023 170    61  12666.03   0.402  55.000   0.000   0.048   0.000   0.388     0.004     0.049
 2023 171    62  12665.62   0.454  55.000   0.000   0.054   0.000   0.417     0.006     0.055
 2023 172    63  12665.19   0.511  55.000   0.000   0.060   0.000   0.431     0.004     0.059
 2023 173    64  12664.74   0.562  55.000   0.000   0.054   0.000   0.450    -0.006     0.053
 2023 174    65  12664.25   0.614  55.000   0.000   0.058   0.000   0.494     0.007     0.060
 2023 175    66  12663.76   0.666  55.000   0.000   0.060   0.000   0.504     0.001     0.061
 2023 176    67  12663.27   0.722  55.000   0.000   0.065   0.000   0.493     0.005     0.066
 2023 177    68  12662.81   0.788  55.000   0.000   0.075   0.000   0.468     0.009     0.075
 2023 178    69  12662.38   0.861  55.000   0.000   0.084   0.000   0.448     0.010     0.084
 2023 179    70  12661.93   0.941  55.000   0.000   0.090   0.000   0.460     0.007     0.091
 2023 180    71  12661.46   1.019  55.000   0.000   0.089   0.000   0.483    -0.001     0.090
 2023 181    72  12660.97   1.099  55.000   0.000   0.094   0.000   0.496     0.005     0.094
 2023 182    73  12660.48   1.184  55.000   0.000   0.101   0.000   0.504     0.007     0.101
 2023 183    74  12660.00   1.261  55.000   0.000   0.096   0.000   0.508    -0.004     0.097
 2023 184    75  12659.51   1.346  55.000   0.000   0.104   0.000   0.502     0.008     0.105
 2023 185    76  12659.04   1.440  55.000   0.000   0.112   0.000   0.496     0.008     0.113
 2023 186    77  12658.57   1.529  55.000   0.000   0.107   0.000   0.488    -0.005     0.108
 2023 187    78  12658.12   1.618  55.000   0.000   0.107   0.000   0.465     0.000     0.108
 2023 188    79  12657.70   1.704  55.000   0.000   0.107   0.000   0.443    -0.000     0.107
 2023 189    80  12657.28   1.789  55.000   0.000   0.106   0.000   0.438     0.000     0.108
 2023 190    81  12656.92   1.877  55.000   0.000   0.106   0.000   0.381    -0.001     0.107
 2023 191    82  12656.57   1.963  55.000   0.000   0.106   0.000   0.370    -0.000     0.107
 2023 192    83  12656.17   2.047  55.000   0.000   0.107   0.000   0.426    -0.000     0.107
 2023 193    84  12655.71   2.125  55.000   0.000   0.107   0.000   0.480     0.001     0.108
 2023 194    85  12655.24   2.201  55.000   0.000   0.107   0.000   0.503     0.000     0.109
 2023 195    86  12654.72   2.278  55.000   0.000   0.107   0.000   0.547    -0.001     0.108
 2023 196    87  12654.19   2.354  55.000   0.000   0.107   0.000   0.562    -0.000     0.107
 2023 197    88  12653.68   2.426  55.000   0.000   0.107   0.000   0.545    -0.000     0.107
 2023 198    89  12653.17   2.496  55.000   0.000   0.107   0.000   0.548    -0.000     0.107
 2023 199    90  12652.67   2.569  55.000   0.000   0.107   0.000   0.534     0.001     0.107
 2023 200    91  12652.18   2.642  55.000   0.000   0.108   0.000   0.532     0.002     0.109
 2023 201    92  12651.66   2.715  55.000   0.000   0.108   0.000   0.545    -0.001     0.108
 2023 202    93  12651.16   2.789  55.000   0.000   0.108   0.000   0.537     0.001     0.108
 2023 203    94  12650.68   2.872  55.000   0.000   0.118   0.000   0.515     0.011     0.119
 2023 204    95  12650.20   2.963  55.000   0.000   0.126   0.000   0.520     0.007     0.126
 2023 205    96  12649.70   3.055  55.000   0.000   0.130   0.000   0.533     0.005     0.131
 2023 206    97  12649.19   3.148  55.000   0.000   0.132   0.000   0.552     0.001     0.132
 2023 207    98  12648.63   3.238  55.000   0.000   0.133   0.000   0.601     0.002     0.134
 2023 208    99  12648.03   3.322  55.000   0.000   0.134   0.000   0.651     0.001     0.135
 2023 209   100  12647.39   3.402  55.000   0.000   0.134   0.000   0.687    -0.000     0.135
 2023 210   101  12646.75   3.482  55.000   0.000   0.135   0.000   0.703    -0.001     0.134
 2023 211   102  12646.11   3.562  55.000   0.000   0.136   0.000   0.693     0.002     0.136
 2023 212   103  12645.48   3.639  55.000   0.000   0.136   0.000   0.691    -0.000     0.136
 2023 213   104  12644.86   3.721  55.000   0.000   0.137   0.000   0.676     0.002     0.138
 2023 214   105  12644.25   3.802  55.000   0.000   0.138   0.000   0.660     0.000     0.138
 2023 215   106  12643.65   3.884  55.000   0.000   0.139   0.000   0.657     0.002     0.139
 2023 216   107  12643.06   3.982  55.000   0.000   0.155   0.000   0.652     0.016     0.155
 2023 217   108  12642.48   4.081  55.000   0.000   0.155   0.000   0.633     0.000     0.155
 2023 218   109  12641.92   4.174  55.000   0.000   0.156   0.000   0.626     0.001     0.157
 2023 219   110  12641.38   4.265  55.000   0.000   0.157   0.000   0.600    -0.001     0.156
 2023 220   111  12640.89   4.364  55.000   0.000   0.155   0.000   0.546     0.000     0.156
 2023 221   112  12640.42   4.461  55.000   0.000   0.154   0.000   0.527    -0.001     0.155
 2023 222   113  12639.97   4.557  55.000   0.000   0.154   0.000   0.515     0.001     0.156
 2023 223   114  12639.51   4.649  55.000   0.000   0.154   0.000   0.525    -0.001     0.155
 2023 224   115  12639.03   4.736  55.000   0.000   0.154   0.000   0.544    -0.001     0.154
 2023 225   116  12638.52   4.820  55.000   0.000   0.155   0.000   0.577     0.001     0.155
 2023 226   117  12638.03   4.903  55.000   0.000   0.154   0.000   0.566    -0.001     0.154
 2023 227   118  12637.55   4.989  55.000   0.000   0.153   0.000   0.547    -0.001     0.153
 2023 228   119  12637.09   5.079  55.000   0.000   0.153   0.000   0.519     0.001     0.154
 2023 229   120  12636.62   5.166  55.000   0.000   0.153   0.000   0.539    -0.002     0.153
 2023 230   121  12636.15   5.252  55.000   0.000   0.153   0.000   0.536     0.001     0.154
 2023 231   122  12635.63   5.322  55.000   0.000   0.153   0.000   0.599    -0.001     0.153
 2023 232   123  12635.07   5.380  55.000   0.000   0.153   0.000   0.662    -0.000     0.153
 2023 233   124  12634.46   5.432  55.000   0.000   0.153   0.000   0.710     0.000     0.153
 2023 234   125  12633.82   5.485  55.000   0.000   0.153   0.000   0.733    -0.001     0.152
 2023 235   126  12633.14   5.518  55.000   0.000   0.153   0.000   0.803    -0.000     0.152
 2023 236   127  12632.44   5.543  55.000   0.000   0.153   0.000   0.828    -0.000     0.152
 2023 237   128  12631.73   5.568  55.000   0.000   0.153   0.000   0.837     0.001     0.153
 2023 238   129  12631.03   5.596  55.000   0.000   0.153   0.000   0.828     0.000     0.153
 2023 239   130  12630.38   5.637  55.000   0.000   0.153   0.000   0.759    -0.000     0.153
 2023 240   131  12629.79   5.689  55.000   0.000   0.153   0.000   0.690     0.000     0.153
 2023 241   132  12629.24   5.750  55.000   0.000   0.153   0.000   0.638    -0.001     0.153
 2023 242   133  12628.74   5.818  55.000   0.000   0.152   0.000   0.591     0.000     0.153
 2023 243   134  12628.25   5.880  55.000   0.000   0.152   0.000   0.575    -0.001     0.152
 2023 244   135  12627.73   5.941  55.000   0.000   0.152   0.000   0.615    -0.000     0.152
 2023 245   136  12627.16   5.984  55.000   0.000   0.152   0.000   0.676     0.000     0.152
 2023 246   137  12626.56   6.017  55.000   0.000   0.152   0.000   0.720    -0.001     0.152
 2023 247   138  12625.93   6.042  55.000   0.000   0.152   0.000   0.757     0.001     0.152
 2023 248   139  12625.28   6.064  55.000   0.000   0.152   0.000   0.784     0.000     0.152
 2023 249   140  12624.68   6.106  55.000   0.000   0.152   0.000   0.704    -0.001     0.151
 2023 250   141  12624.15   6.153  55.000   0.000   0.151   0.000   0.632     0.000     0.151
 2023 251   142  12623.66   6.203  55.000   0.000   0.151   0.000   0.594    -0.000     0.151
 2023 252   143  12623.21   6.261  55.000   0.000   0.151   0.000   0.545     0.001     0.152
 2023 253   144  12622.77   6.322  55.000   0.000   0.151   0.000   0.528     0.000     0.152
 2023 254   145  12622.32   6.386  55.000   0.000   0.151   0.000   0.535    -0.001     0.151
 2023 255   146  12621.88   6.444  55.000   0.000   0.150   0.000   0.534     0.000     0.151
 2023 256   147  12621.46   6.505  55.000   0.000   0.150   0.000   0.507    -0.001     0.150
 2023 257   148  12621.05   6.566  55.000   0.000   0.150   0.000   0.498     0.000     0.150
 2023 258   149  12620.67   6.633  55.000   0.000   0.150   0.000   0.469     0.000     0.150
 2023 259   150  12620.27   6.698  55.000   0.000   0.150   0.000   0.482     0.000     0.151
 2023 260   151  12619.86   6.755  55.000   0.000   0.149   0.000   0.506    -0.001     0.150
 2023 261   152  12619.44   6.810  55.000   0.000   0.149   0.000   0.510     0.001     0.151
 2023 262   153  12619.01   6.859  55.000   0.000   0.149   0.000   0.535    -0.001     0.149
 2023 263   154  12618.56   6.905  55.000   0.000   0.149   0.000   0.548     0.001     0.150
 2023 264   155  12618.11   6.800  55.000   0.000   0.000   0.000   0.558    -0.151    -0.000
 2023 265   156  12617.66   6.697  55.000   0.000   0.000   0.000   0.555     0.001     0.000
 2023 266   157  12617.20   6.598  55.000   0.000   0.000   0.000   0.550     0.001     0.001
 2023 267   158  12616.77   6.506  55.000   0.000   0.000   0.000   0.522    -0.000     0.001
 2023 268   159  12616.36   6.421  55.000   0.000   0.000   0.000   0.498    -0.000     0.001


!                                        INITIAL Year/Doy      FINAL Year/Doy
!                                                2023/110            2023/268
!SOIL N BALANCE                                 -----------kg N/ha-----------

!   Soil Humus N                                 12681.62            12616.36
!   Soil Litter N                                    0.00                6.42
!   N in Surface Residue                             0.00               55.00

!   Added to / Removed from Soil:
!   N in Harvest Residues from Previous Crop         0.00
!   N from Organic Applications                     55.00
!   N from senesced plant matter                    12.46
!   N immobilized                                    0.00
!   N mineralized                                                       71.30

!   Total N balance                              12749.08            12749.08
!   Balance                                                             0.000
