*WARNING DETAIL FILE

******************************************************************************

*DSSAT Cropping System Model Ver. 4.8.2.000 -release  APR 04, 2025 02:45:31

*RUN   1        : farm_23                   MZCER048 UNLI2309    1
 MODEL          : MZCER048 - Maize
 EXPERIMENT     : UNLI2309 MZ PIO1366
 DATA PATH      :
 TREATMENT  1   : farm_23                   MZCER048
  

 IPRES   YEAR DOY =    0   0
 Residue application   1                                                       
 Neither residue incorporation percentage nor depth specified. Applied residues
 will remain on surface until a tillage event is specified.                    

 IPSOIL  YEAR DOY =    0   0
 Soil profile missing from file.                                               
 Soil ID: NENP230018                                                           
 File: NE.SOL                                                                  

 IPSOIL  YEAR DOY =    0   0
 End of soil file.  Please add missing information to input file.              
 File: NE.SOL                                                                  
    Line:  2298                                                                
    Error key: IPSOIL                                                          
 Simulations terminated.                                                       
