*Soil Carbon Balance

*DSSAT Cropping System Model Ver. 4.8.2.000 -release  JAN 24, 2025 00:02:17

*RUN   1        : silt_loam_13in_irr        MZCER048 UNLI2201    1
 MODEL          : MZCER048 - Maize
 EXPERIMENT     : UNLI2201 MZ IRRIGATED MAIZE PRODUCTION
 DATA PATH      :
 TREATMENT  1   : silt_loam_13in_irr        MZCER048
  

!                                                 Initial               Final
!                                                Year/DOY            Year/DOY
!                                                2022-120            2022-120
! SOIL C BALANCE                                 --------- kg[C]/ha ---------
!  SOIL & SURFACE ORGANIC C
!   Soil Organic C                              148717.91           147966.39
!   Surface Organic C                                0.00                0.00
!   Soil Litter C                                    0.00               35.63
!   Surface Litter C                                 0.00                0.00
!   Soil methane C stored                            0.00                0.00
!                                                --------            --------
!   Total C in Soil and Surface Layers          148717.91           148002.02
!  ADDITIONS AND REMOVALS:
!   C in Harvest Residues from Previous              0.00
!   C from Organic Applications                      0.00
!   C in returned senesced material                 74.39
!   CO2-C emitted                                  790.26
!   CH4-C emitted                                    0.00
!   CH4-C leached                                    0.00
!   CH4-C plant uptake                               0.00
!                                                --------            --------
! TOTAL C BALANCE                               148792.30           148792.28
!   Balance                                                            -0.017
