*RUN-TIME ERRORS OUTPUT FILE



*DSSAT Cropping System Model Ver. 4.8.2.000 -release  APR 04, 2025 02:57:25

*RUN   1        : farm_23                            UNLI2309    1

 EXPERIMENT     : UNLI2309 MZ PIO1366
 DATA PATH      :
 TREATMENT  1   : farm_23
  
UNLI2309.MZX, Trt    0
 
 Start simulation date is lower than first weather date.                        
  
File: UNLI2309   Line:     0   Error key: MAKEFW

Additional information may be available in WARNING.OUT file.
