*Summary of files opened during simulation

Unit  File
Num.  Variable Name
*DSSAT Cropping System Model Ver. 4.8.2.000   -release    APR 04, 2025; 02:57:25

 Unit  Filename
  501  OPCLR
   21  FILEIO
  502  LUNMFW
  117  ERRORO
   15  ERRORX
  122  WARNING.OUT
