*SOIL ORGANIC N BALANCE

*DSSAT Cropping System Model Ver. 4.8.2.000 -release  SEP 04, 2025 19:41:23

*RUN   1        : farm_23                   MZCER048 UNLI2309    1
 MODEL          : MZCER048 - Maize
 EXPERIMENT     : UNLI2309 MZ PIO1366
 DATA PATH      :
 TREATMENT  1   : farm_23                   MZCER048
  
!                 ----- STATE VARS ------   ---- ADDED TODAY ---- REMOVED     DAILY     CUMUL
@YEAR DOY   DAS      HUMN     FON    RESN   ARESN   ASENN AIMMOBN RMINERP      DBAL      CBAL
 2020 109     0  12681.62   0.000   0.000   0.000   0.000   0.000   0.000     0.000     0.000
 2020 110     1  12681.56   0.000  55.000  55.000   0.000   0.000   0.060     0.001     0.001
 2020 111     2  12681.50   0.000  55.000   0.000   0.000   0.000   0.057    -0.001    -0.000
 2020 112     3  12681.44   0.000  55.000   0.000   0.000   0.000   0.066    -0.000    -0.001
 2020 113     4  12681.36   0.000  55.000   0.000   0.000   0.000   0.077     0.001     0.000
 2020 114     5  12681.25   0.000  55.000   0.000   0.000   0.000   0.107    -0.000    -0.000
 2020 115     6  12681.12   0.000  55.000   0.000   0.000   0.000   0.130     0.001     0.001
 2020 116     7  12680.98   0.000  55.000   0.000   0.000   0.000   0.144    -0.001     0.000
 2020 117     8  12680.84   0.000  55.000   0.000   0.000   0.000   0.143     0.000     0.001
 2020 118     9  12680.68   0.000  55.000   0.000   0.000   0.000   0.160     0.000     0.001
 2020 119    10  12680.50   0.000  55.000   0.000   0.000   0.000   0.178    -0.001     0.000
 2020 120    11  12680.30   0.000  55.000   0.000   0.000   0.000   0.193     0.000     0.000
 2020 121    12  12680.09   0.000  55.000   0.000   0.000   0.000   0.210    -0.000     0.000
 2020 122    13  12679.86   0.000  55.000   0.000   0.000   0.000   0.236     0.000     0.000
 2020 123    14  12679.58   0.000  55.000   0.000   0.000   0.000   0.276     0.001     0.001
 2020 124    15  12679.33   0.000  55.000   0.000   0.000   0.000   0.257    -0.000     0.001
 2020 125    16  12679.08   0.000  55.000   0.000   0.000   0.000   0.251     0.000     0.001
 2020 126    17  12678.84   0.000  55.000   0.000   0.000   0.000   0.233    -0.000     0.001
 2020 127    18  12678.62   0.000  55.000   0.000   0.000   0.000   0.219    -0.000     0.001
 2020 128    19  12678.47   0.000  55.000   0.000   0.000   0.000   0.153     0.001     0.002
 2020 129    20  12678.32   0.000  55.000   0.000   0.000   0.000   0.148    -0.001     0.001
 2020 130    21  12678.20   0.000  55.000   0.000   0.000   0.000   0.120     0.001     0.002
 2020 131    22  12678.09   0.000  55.000   0.000   0.000   0.000   0.112    -0.001     0.001
 2020 132    23  12678.02   0.000  55.000   0.000   0.000   0.000   0.075     0.000     0.001
 2020 133    24  12677.97   0.000  55.000   0.000   0.000   0.000   0.043     0.000     0.001
 2020 134    25  12677.96   0.000  55.000   0.000   0.000   0.000   0.011    -0.000     0.001
 2020 135    26  12677.95   0.000  55.000   0.000   0.000   0.000   0.015     0.000     0.001
 2020 136    27  12677.91   0.000  55.000   0.000   0.000   0.000   0.039    -0.001     0.000
 2020 137    28  12677.82   0.000  55.000   0.000   0.000   0.000   0.086     0.000     0.001
 2020 138    29  12677.67   0.000  55.000   0.000   0.000   0.000   0.154     0.001     0.001
 2020 139    30  12677.48   0.000  55.000   0.000   0.000   0.000   0.190    -0.000     0.001
 2020 140    31  12677.28   0.000  55.000   0.000   0.000   0.000   0.200    -0.001     0.001
 2020 141    32  12677.07   0.000  55.000   0.000   0.000   0.000   0.207     0.000     0.001
 2020 142    33  12676.84   0.000  55.000   0.000   0.000   0.000   0.230    -0.001     0.000
 2020 143    34  12676.61   0.000  55.000   0.000   0.000   0.000   0.231     0.001     0.001
 2020 144    35  12676.35   0.000  55.000   0.000   0.000   0.000   0.263    -0.000     0.001
 2020 145    36  12676.05   0.000  55.000   0.000   0.000   0.000   0.291     0.000     0.001
 2020 146    37  12675.76   0.000  55.000   0.000   0.000   0.000   0.294    -0.001     0.001
 2020 147    38  12675.50   0.000  55.000   0.000   0.000   0.000   0.261     0.001     0.001
 2020 148    39  12675.24   0.000  55.000   0.000   0.000   0.000   0.255    -0.000     0.001
 2020 149    40  12674.99   0.000  55.000   0.000   0.000   0.000   0.255    -0.000     0.001
 2020 150    41  12674.73   0.000  55.000   0.000   0.000   0.000   0.259     0.000     0.001
 2020 151    42  12674.46   0.001  55.000   0.000   0.001   0.000   0.271     0.000     0.001
 2020 152    43  12674.14   0.003  55.000   0.000   0.001   0.000   0.316     0.001     0.002
 2020 153    44  12673.78   0.005  55.000   0.000   0.002   0.000   0.361     0.000     0.002
 2020 154    45  12673.36   0.006  55.000   0.000   0.002   0.000   0.418     0.001     0.003
 2020 155    46  12672.90   0.008  55.000   0.000   0.002   0.000   0.462    -0.000     0.003
 2020 156    47  12672.42   0.011  55.000   0.000   0.003   0.000   0.484     0.001     0.004
 2020 157    48  12671.91   0.014  55.000   0.000   0.003   0.000   0.506     0.001     0.005
 2020 158    49  12671.39   0.019  55.000   0.000   0.004   0.000   0.517     0.000     0.005
 2020 159    50  12670.87   0.024  55.000   0.000   0.006   0.000   0.526     0.002     0.007
 2020 160    51  12670.32   0.030  55.000   0.000   0.006   0.000   0.551     0.000     0.007
 2020 161    52  12669.75   0.038  55.000   0.000   0.008   0.000   0.568     0.001     0.008
 2020 162    53  12669.23   0.046  55.000   0.000   0.009   0.000   0.520     0.002     0.010
 2020 163    54  12668.75   0.054  55.000   0.000   0.008   0.000   0.481    -0.002     0.008
 2020 164    55  12668.32   0.065  55.000   0.000   0.011   0.000   0.427     0.005     0.013
 2020 165    56  12667.94   0.079  55.000   0.000   0.013   0.000   0.386     0.002     0.014
 2020 166    57  12667.56   0.093  55.000   0.000   0.014   0.000   0.375     0.001     0.015
 2020 167    58  12667.11   0.107  55.000   0.000   0.014   0.000   0.455     0.000     0.015
 2020 168    59  12666.59   0.124  55.000   0.000   0.016   0.000   0.520     0.001     0.016
 2020 169    60  12666.02   0.142  55.000   0.000   0.019   0.000   0.569     0.003     0.020
 2020 170    61  12665.41   0.163  55.000   0.000   0.020   0.000   0.605     0.001     0.021
 2020 171    62  12664.82   0.184  55.000   0.000   0.021   0.000   0.591     0.001     0.022
 2020 172    63  12664.29   0.206  55.000   0.000   0.022   0.000   0.533     0.002     0.024
 2020 173    64  12663.80   0.228  55.000   0.000   0.022   0.000   0.491     0.001     0.024
 2020 174    65  12663.33   0.252  55.000   0.000   0.023   0.000   0.469    -0.000     0.024
 2020 175    66  12662.90   0.275  55.000   0.000   0.023   0.000   0.424     0.000     0.024
 2020 176    67  12662.49   0.300  55.000   0.000   0.024   0.000   0.414     0.001     0.025
 2020 177    68  12662.05   0.327  55.000   0.000   0.024   0.000   0.439     0.000     0.025
 2020 178    69  12661.58   0.354  55.000   0.000   0.025   0.000   0.469     0.000     0.025
 2020 179    70  12661.10   0.383  55.000   0.000   0.025   0.000   0.469     0.000     0.026
 2020 180    71  12660.61   0.413  55.000   0.000   0.026   0.000   0.493     0.001     0.026
 2020 181    72  12660.07   0.444  55.000   0.000   0.026   0.000   0.528     0.001     0.027
 2020 182    73  12659.52   0.476  55.000   0.000   0.026   0.000   0.549     0.001     0.028
 2020 183    74  12659.01   0.509  55.000   0.000   0.027   0.000   0.505    -0.000     0.028
 2020 184    75  12658.53   0.541  55.000   0.000   0.027   0.000   0.477     0.000     0.029
 2020 185    76  12658.05   0.575  55.000   0.000   0.028   0.000   0.471     0.001     0.030
 2020 186    77  12657.59   0.609  55.000   0.000   0.028   0.000   0.457    -0.001     0.029
 2020 187    78  12657.15   0.643  55.000   0.000   0.028   0.000   0.430     0.001     0.030
 2020 188    79  12656.69   0.678  55.000   0.000   0.029   0.000   0.454     0.001     0.030
 2020 189    80  12656.21   0.714  55.000   0.000   0.029   0.000   0.478    -0.000     0.030
 2020 190    81  12655.71   0.750  55.000   0.000   0.029   0.000   0.486    -0.000     0.030
 2020 191    82  12655.21   0.788  55.000   0.000   0.030   0.000   0.491     0.000     0.030
 2020 192    83  12654.70   0.826  55.000   0.000   0.030   0.000   0.509     0.001     0.031
 2020 193    84  12654.17   0.866  55.000   0.000   0.031   0.000   0.517     0.001     0.032
 2020 194    85  12653.66   0.906  55.000   0.000   0.031   0.000   0.499     0.000     0.032
 2020 195    86  12653.18   0.945  55.000   0.000   0.032   0.000   0.475     0.001     0.032
 2020 196    87  12652.68   0.986  55.000   0.000   0.032   0.000   0.495     0.001     0.033
 2020 197    88  12652.17   1.029  55.000   0.000   0.033   0.000   0.498    -0.000     0.033
 2020 198    89  12651.67   1.071  55.000   0.000   0.033   0.000   0.493     0.001     0.033
 2020 199    90  12651.15   1.113  55.000   0.000   0.033   0.000   0.507     0.001     0.034
 2020 200    91  12650.61   1.156  55.000   0.000   0.034   0.000   0.533     0.001     0.035
 2020 201    92  12650.08   1.198  55.000   0.000   0.034   0.000   0.522    -0.000     0.035
 2020 202    93  12649.53   1.240  55.000   0.000   0.035   0.000   0.539     0.000     0.035
 2020 203    94  12648.98   1.282  55.000   0.000   0.035   0.000   0.544     0.000     0.035
 2020 204    95  12648.45   1.323  55.000   0.000   0.035   0.000   0.521     0.000     0.035
 2020 205    96  12647.94   1.365  55.000   0.000   0.036   0.000   0.505    -0.000     0.035
 2020 206    97  12647.42   1.406  55.000   0.000   0.036   0.000   0.517     0.001     0.036
 2020 207    98  12646.88   1.447  55.000   0.000   0.037   0.000   0.540     0.000     0.037
 2020 208    99  12646.31   1.489  55.000   0.000   0.037   0.000   0.557    -0.000     0.036
 2020 209   100  12645.73   1.530  55.000   0.000   0.037   0.000   0.577     0.001     0.038
 2020 210   101  12645.16   1.571  55.000   0.000   0.038   0.000   0.568    -0.000     0.037
 2020 211   102  12644.60   1.611  55.000   0.000   0.038   0.000   0.558     0.001     0.038
 2020 212   103  12644.05   1.651  55.000   0.000   0.038   0.000   0.547     0.001     0.039
 2020 213   104  12643.53   1.691  55.000   0.000   0.039   0.000   0.519    -0.000     0.038
 2020 214   105  12643.02   1.731  55.000   0.000   0.039   0.000   0.517     0.001     0.040
 2020 215   106  12642.50   1.770  55.000   0.000   0.040   0.000   0.514     0.000     0.040
 2020 216   107  12642.02   1.809  55.000   0.000   0.040   0.000   0.480    -0.000     0.040
 2020 217   108  12641.58   1.847  55.000   0.000   0.040   0.000   0.446     0.001     0.041
 2020 218   109  12641.14   1.885  55.000   0.000   0.041   0.000   0.446     0.001     0.041
 2020 219   110  12640.68   1.922  55.000   0.000   0.041   0.000   0.460    -0.001     0.040
 2020 220   111  12640.22   1.959  55.000   0.000   0.041   0.000   0.467     0.000     0.041
 2020 221   112  12639.70   1.995  55.000   0.000   0.042   0.000   0.519     0.000     0.041
 2020 222   113  12639.15   2.030  55.000   0.000   0.042   0.000   0.557     0.001     0.042
 2020 223   114  12638.57   2.064  55.000   0.000   0.042   0.000   0.588    -0.000     0.042
 2020 224   115  12637.99   2.097  55.000   0.000   0.043   0.000   0.590     0.001     0.042
 2020 225   116  12637.41   2.129  55.000   0.000   0.043   0.000   0.593     0.001     0.043
 2020 226   117  12636.84   2.160  55.000   0.000   0.044   0.000   0.583    -0.000     0.043
 2020 227   118  12636.26   2.191  55.000   0.000   0.044   0.000   0.597    -0.000     0.043
 2020 228   119  12635.69   2.221  55.000   0.000   0.044   0.000   0.583     0.002     0.045
 2020 229   120  12635.13   2.252  55.000   0.000   0.045   0.000   0.571     0.000     0.045
 2020 230   121  12634.57   2.282  55.000   0.000   0.045   0.000   0.579    -0.000     0.045
 2020 231   122  12634.02   2.312  55.000   0.000   0.046   0.000   0.560    -0.000     0.045
 2020 232   123  12633.48   2.342  55.000   0.000   0.046   0.000   0.556     0.001     0.046
 2020 233   124  12632.93   2.371  55.000   0.000   0.046   0.000   0.574     0.001     0.047
 2020 234   125  12632.34   2.399  55.000   0.000   0.047   0.000   0.609    -0.000     0.046
 2020 235   126  12631.74   2.426  55.000   0.000   0.047   0.000   0.614    -0.001     0.046
 2020 236   127  12631.13   2.452  55.000   0.000   0.048   0.000   0.638     0.001     0.047
 2020 237   128  12630.51   2.478  55.000   0.000   0.048   0.000   0.640    -0.000     0.047
 2020 238   129  12629.87   2.502  55.000   0.000   0.048   0.000   0.661     0.001     0.048
 2020 239   130  12629.22   2.526  55.000   0.000   0.049   0.000   0.675     0.000     0.048
 2020 240   131  12628.56   2.548  55.000   0.000   0.049   0.000   0.687     0.001     0.048
 2020 241   132  12627.89   2.570  55.000   0.000   0.050   0.000   0.694     0.000     0.048
 2020 242   133  12627.25   2.593  55.000   0.000   0.050   0.000   0.677     0.001     0.050
 2020 243   134  12626.65   2.617  55.000   0.000   0.051   0.000   0.622    -0.000     0.050
 2020 244   135  12626.06   2.642  55.000   0.000   0.051   0.000   0.612    -0.000     0.050
 2020 245   136  12625.53   2.669  55.000   0.000   0.051   0.000   0.556     0.000     0.050
 2020 246   137  12625.04   2.698  55.000   0.000   0.052   0.000   0.517     0.001     0.051
 2020 247   138  12624.56   2.728  55.000   0.000   0.052   0.000   0.495    -0.001     0.050
 2020 248   139  12624.08   2.757  55.000   0.000   0.052   0.000   0.509     0.001     0.051
 2020 249   140  12623.61   2.787  55.000   0.000   0.053   0.000   0.494     0.001     0.052
 2020 250   141  12623.10   2.815  55.000   0.000   0.053   0.000   0.529    -0.000     0.051
 2020 251   142  12622.58   2.841  55.000   0.000   0.053   0.000   0.556     0.001     0.052
 2020 252   143  12622.06   2.868  55.000   0.000   0.053   0.000   0.538    -0.001     0.052
 2020 253   144  12621.62   2.899  55.000   0.000   0.054   0.000   0.460    -0.000     0.051
 2020 254   145  12621.28   2.934  55.000   0.000   0.054   0.000   0.364     0.001     0.052
 2020 255   146  12621.02   2.974  55.000   0.000   0.054   0.000   0.279     0.001     0.054
 2020 256   147  12620.80   3.017  55.000   0.000   0.054   0.000   0.223    -0.001     0.053
 2020 257   148  12620.59   3.061  55.000   0.000   0.054   0.000   0.222     0.000     0.053
 2020 258   149  12620.31   3.100  55.000   0.000   0.054   0.000   0.297    -0.000     0.053
 2020 259   150  12619.96   3.134  55.000   0.000   0.055   0.000   0.370     0.000     0.053
 2020 260   151  12619.54   3.164  55.000   0.000   0.055   0.000   0.441     0.000     0.054
 2020 261   152  12619.12   3.194  55.000   0.000   0.055   0.000   0.446    -0.001     0.053
 2020 262   153  12618.70   3.223  55.000   0.000   0.055   0.000   0.445     0.000     0.053
 2020 263   154  12618.29   3.252  55.000   0.000   0.055   0.000   0.445     0.001     0.054
 2020 264   155  12617.85   3.280  55.000   0.000   0.055   0.000   0.462    -0.000     0.053
 2020 265   156  12617.41   3.251  55.000   0.000   0.000   0.000   0.467    -0.055    -0.001
 2020 266   157  12616.94   3.221  55.000   0.000   0.000   0.000   0.506     0.001    -0.000
 2020 267   158  12616.43   3.187  55.000   0.000   0.000   0.000   0.541    -0.001    -0.002
 2020 268   159  12615.91   3.153  55.000   0.000   0.000   0.000   0.555    -0.000    -0.002


!                                        INITIAL Year/Doy      FINAL Year/Doy
!                                                2020/110            2020/268
!SOIL N BALANCE                                 -----------kg N/ha-----------

!   Soil Humus N                                 12681.62            12615.91
!   Soil Litter N                                    0.00                3.15
!   N in Surface Residue                             0.00               55.00

!   Added to / Removed from Soil:
!   N in Harvest Residues from Previous Crop         0.00
!   N from Organic Applications                     55.00
!   N from senesced plant matter                     3.93
!   N immobilized                                    0.00
!   N mineralized                                                       66.49

!   Total N balance                              12740.55            12740.55
!   Balance                                                            -0.001
