*GHG emissions output file

*DSSAT Cropping System Model Ver. 4.8.2.000 -release  MAR 13, 2025 05:16:48

*RUN   1        : silt_loam_13in_irr        MZCER048 UNLI2201    1
 MODEL          : MZCER048 - Maize
 EXPERIMENT     : UNLI2201 MZ IRRIGATED MAIZE PRODUCTION
 DATA PATH      :
 TREATMENT  1   : silt_loam_13in_irr        MZCER048
  
!               |------ Daily (g/ha) -----|--- Cumulative (kg/ha) ---|---- Cum CO2-equiv kg[CO2eq]/ha ---|
!                    CO2      N2O      CH4      CO2      N2O      CH4      CO2      N2O      CH4    Total
!                g[C]/ha  g[N]/ha  g[C]/ha kg[C]/ha kg[N]/ha kg[C]/ha    CO2eq    CO2eq    CO2eq    CO2eq
@YEAR DOY   DAS   CO2GED   N2OGED   CH4GED    CO2EC    N2OEC    CH4EC    CCEQC    NCEQC    MCEQC    TCEQC
 2022 121     1     1191     0.00     0.00        1     0.00     0.00        4        0        0        4
 2022 122     2     1153     0.00     0.00        2     0.00     0.00        9        0        0        9
 2022 123     3      791     0.00     0.00        3     0.00     0.00       12        0        0       12
 2022 124     4      466     0.00     0.00        4     0.00     0.00       13        0        0       13
 2022 125     5      270     0.00     0.00        4     0.00     0.00       14        0        0       14
 2022 126     6      260     0.00     0.00        4     0.00     0.00       15        0        0       15
 2022 127     7      518     0.01     0.00        5     0.00     0.00       17        0        0       17
 2022 128     8     1350     0.00     0.00        6     0.00     0.00       22        0        0       22
 2022 129     9     2239     0.01     0.00        8     0.00     0.00       30        0        0       30
 2022 130    10     2912     0.02     0.00       11     0.00     0.00       41        0        0       41
 2022 131    11     3290     0.02     0.00       14     0.00     0.00       53        0        0       53
 2022 132    12     3792     0.03     0.00       18     0.00     0.00       67        0        0       67
 2022 133    13     4038     0.04     0.00       22     0.00     0.00       82        0        0       82
 2022 134    14     3864     0.05     0.00       26     0.00     0.00       96        0        0       96
 2022 135    15     3790     0.05     0.00       30     0.00     0.00      110        0        0      110
 2022 136    16     3810     0.06     0.00       34     0.00     0.00      124        0        0      124
 2022 137    17     3537     0.07     0.00       37     0.00     0.00      137        0        0      137
 2022 138    18     3566     0.08     0.00       41     0.00     0.00      150        0        0      150
 2022 139    19     3884     0.09     0.00       45     0.00     0.00      164        0        0      164
 2022 140    20     4204     0.10     0.00       49     0.00     0.00      180        0        0      180
 2022 141    21     3766     0.11     0.00       53     0.00     0.00      193        0        0      194
 2022 142    22     3010     0.12     0.00       56     0.00     0.00      204        0        0      205
 2022 143    23     2057     0.12     0.00       58     0.00     0.00      212        0        0      212
 2022 144    24     1382     0.08     0.00       59     0.00     0.00      217        0        0      218
 2022 145    25      714     0.09     0.00       60     0.00     0.00      220        1        0      220
 2022 146    26      989     0.15     0.00       61     0.00     0.00      223        1        0      224
 2022 147    27     1584     0.16     0.00       62     0.00     0.00      229        1        0      230
 2022 148    28     2427     0.16     0.00       65     0.00     0.00      238        1        0      239
 2022 149    29     3186     0.16     0.00       68     0.00     0.00      250        1        0      251
 2022 150    30     3972     0.17     0.00       72     0.00     0.00      264        1        0      265
 2022 151    31     4057     0.14     0.00       76     0.00     0.00      279        1        0      280
 2022 152    32     3992     0.19     0.00       80     0.00     0.00      294        1        0      295
 2022 153    33     3618     0.20     0.00       84     0.00     0.00      307        1        0      308
 2022 154    34     3211     0.20     0.00       87     0.00     0.00      319        1        0      320
 2022 155    35     2886     0.20     0.00       90     0.00     0.00      329        1        0      331
 2022 156    36     3280     0.21     0.00       93     0.00     0.00      342        1        0      343
 2022 157    37     3685     0.21     0.00       97     0.00     0.00      355        2        0      357
 2022 158    38     4183     0.22     0.00      101     0.00     0.00      370        2        0      372
 2022 159    39     4456     0.09     0.00      105     0.00     0.00      387        2        0      388
 2022 160    40     4558     0.23     0.00      110     0.00     0.00      403        2        0      405
 2022 161    41     4552     0.28     0.00      114     0.00     0.00      420        2        0      422
 2022 162    42     4581     0.28     0.00      119     0.00     0.00      437        2        0      439
 2022 163    43     4840     0.28     0.00      124     0.00     0.00      455        2        0      457
 2022 164    44     5390     0.29     0.00      129     0.00     0.00      475        2        0      477
 2022 165    45     6134     0.30     0.00      135     0.01     0.00      497        2        0      499
 2022 166    46     6221     0.31     0.00      142     0.01     0.00      520        3        0      522
 2022 167    47     6154     0.32     0.00      148     0.01     0.00      542        3        0      545
 2022 168    48     5767     0.33     0.00      154     0.01     0.00      564        3        0      567
 2022 169    49     5779     0.33     0.00      159     0.01     0.00      585        3        0      588
 2022 170    50     5601     0.34     0.00      165     0.01     0.00      605        3        0      609
 2022 171    51     5857     0.35     0.00      171     0.01     0.00      627        3        0      630
 2022 172    52     6129     0.36     0.00      177     0.01     0.00      649        4        0      653
 2022 173    53     5976     0.37     0.00      183     0.01     0.00      671        4        0      675
 2022 174    54     5384     0.37     0.00      188     0.01     0.00      691        4        0      695
 2022 175    55     5096     0.38     0.00      193     0.01     0.00      710        4        0      714
 2022 176    56     4779     0.38     0.00      198     0.01     0.00      727        4        0      732
 2022 177    57     4220     0.38     0.00      202     0.01     0.00      743        4        0      747
 2022 178    58     3994     0.38     0.00      206     0.01     0.00      757        5        0      762
 2022 179    59     3980     0.39     0.00      210     0.01     0.00      772        5        0      777
 2022 180    60     3781     0.39     0.00      214     0.01     0.00      786        5        0      791
 2022 181    61     3863     0.39     0.00      218     0.01     0.00      800        5        0      805
 2022 182    62     4116     0.39     0.00      222     0.01     0.00      815        5        0      821
 2022 183    63     4431     0.39     0.00      227     0.01     0.00      831        6        0      837
 2022 184    64     5552     0.05     0.00      232     0.01     0.00      852        6        0      857
 2022 185    65     6037     0.10     0.00      238     0.01     0.00      874        6        0      880
 2022 186    66     6126     0.39     0.00      244     0.01     0.00      896        6        0      902
 2022 187    67     6472     0.10     0.00      251     0.01     0.00      920        6        0      926
 2022 188    68     6640     0.22     0.00      257     0.01     0.00      945        6        0      951
 2022 189    69     6822     0.10     0.00      264     0.01     0.00      970        6        0      976
 2022 190    70     7048     0.37     0.00      271     0.01     0.00      996        6        0     1002
 2022 191    71     7045     0.68     0.00      278     0.01     0.00     1021        6        0     1028
 2022 192    72     6960     0.65     0.00      285     0.01     0.00     1047        7        0     1054
 2022 193    73     6706     0.62     0.00      292     0.02     0.00     1072        7        0     1079
 2022 194    74     6390     0.61     0.00      298     0.02     0.00     1095        7        0     1102
 2022 195    75     6289     0.59     0.00      305     0.02     0.00     1118        8        0     1126
 2022 196    76     6114     0.59     0.00      311     0.02     0.00     1141        8        0     1148
 2022 197    77     5667     0.58     0.00      316     0.02     0.00     1161        8        0     1169
 2022 198    78     5794     0.57     0.00      322     0.02     0.00     1183        8        0     1191
 2022 199    79     5771     0.57     0.00      328     0.02     0.00     1204        9        0     1212
 2022 200    80     5580     0.56     0.00      334     0.02     0.00     1224        9        0     1233
 2022 201    81     5089     0.56     0.00      339     0.02     0.00     1243        9        0     1252
 2022 202    82     4801     0.55     0.00      343     0.02     0.00     1261        9        0     1270
 2022 203    83     5415     0.16     0.00      349     0.02     0.00     1280       10        0     1290
 2022 204    84     5585     0.49     0.00      354     0.02     0.00     1301       10        0     1311
 2022 205    85     5337     0.61     0.00      360     0.02     0.00     1320       10        0     1331
 2022 206    86     5002     0.60     0.00      365     0.02     0.00     1339       10        0     1349
 2022 207    87     5019     0.49     0.00      370     0.02     0.00     1357       11        0     1368
 2022 208    88     4722     0.58     0.00      375     0.02     0.00     1375       11        0     1385
 2022 209    89     5145     0.10     0.00      380     0.02     0.00     1393       11        0     1404
 2022 210    90     4869     0.32     0.00      385     0.02     0.00     1411       11        0     1422
 2022 211    91     4886     0.56     0.00      389     0.02     0.00     1429       11        0     1441
 2022 212    92     4856     0.65     0.00      394     0.02     0.00     1447       12        0     1459
 2022 213    93     4905     0.61     0.00      399     0.03     0.00     1465       12        0     1477
 2022 214    94     5008     0.58     0.00      404     0.03     0.00     1483       12        0     1496
 2022 215    95     5383     0.56     0.00      410     0.03     0.00     1503       12        0     1516
 2022 216    96     5413     0.55     0.00      415     0.03     0.00     1523       13        0     1536
 2022 217    97     5372     0.55     0.00      420     0.03     0.00     1543       13        0     1556
 2022 218    98     5350     0.54     0.00      426     0.03     0.00     1562       13        0     1576
 2022 219    99     5173     0.53     0.00      431     0.03     0.00     1581       13        0     1595
 2022 220   100     4764     0.51     0.00      436     0.03     0.00     1599       14        0     1613
 2022 221   101     4383     0.51     0.00      440     0.03     0.00     1615       14        0     1629
 2022 222   102     4262     0.50     0.00      444     0.03     0.00     1631       14        0     1645
 2022 223   103     4002     0.50     0.00      448     0.03     0.00     1645       14        0     1660
 2022 224   104     3903     0.49     0.00      452     0.03     0.00     1660       15        0     1674
 2022 225   105     4151     0.48     0.00      456     0.03     0.00     1675       15        0     1690
 2022 226   106     4273     0.47     0.00      461     0.03     0.00     1691       15        0     1706
 2022 227   107     4230     0.46     0.00      465     0.03     0.00     1706       15        0     1721
 2022 228   108     4904     0.26     0.00      470     0.03     0.00     1724       15        0     1740
 2022 229   109     4756     0.37     0.00      475     0.03     0.00     1742       16        0     1757
 2022 230   110     4396     0.47     0.00      479     0.03     0.00     1758       16        0     1773
 2022 231   111     4185     0.46     0.00      483     0.03     0.00     1773       16        0     1789
 2022 232   112     3846     0.45     0.00      487     0.03     0.00     1787       16        0     1803
 2022 233   113     3544     0.45     0.00      491     0.04     0.00     1800       16        0     1817
 2022 234   114     3596     0.44     0.00      494     0.04     0.00     1813       17        0     1830
 2022 235   115     3585     0.44     0.00      498     0.04     0.00     1826       17        0     1843
 2022 236   116     3524     0.43     0.00      501     0.04     0.00     1839       17        0     1857
 2022 237   117     3571     0.42     0.00      505     0.04     0.00     1853       17        0     1870
 2022 238   118     3778     0.42     0.00      509     0.04     0.00     1866       17        0     1884
 2022 239   119     3865     0.41     0.00      512     0.04     0.00     1881       18        0     1898
 2022 240   120     3932     0.41     0.00      516     0.04     0.00     1895       18        0     1913
 2022 241   121     3965     0.40     0.00      520     0.04     0.00     1910       18        0     1928
 2022 242   122     3862     0.40     0.00      524     0.04     0.00     1924       18        0     1942
 2022 243   123     3665     0.39     0.00      528     0.04     0.00     1937       18        0     1956
 2022 244   124     3752     0.37     0.00      532     0.04     0.00     1951       19        0     1970
 2022 245   125     3592     0.37     0.00      535     0.04     0.00     1964       19        0     1983
 2022 246   126     3516     0.37     0.00      539     0.04     0.00     1977       19        0     1996
 2022 247   127     3417     0.37     0.00      542     0.04     0.00     1990       19        0     2009
 2022 248   128     3306     0.37     0.00      545     0.04     0.00     2002       19        0     2021
 2022 249   129     3230     0.36     0.00      549     0.04     0.00     2014       19        0     2033
 2022 250   130     3273     0.36     0.00      552     0.04     0.00     2026       20        0     2045
 2022 251   131     3181     0.36     0.00      555     0.04     0.00     2037       20        0     2057
 2022 252   132     3371     0.35     0.00      558     0.04     0.00     2050       20        0     2070
 2022 253   133     3278     0.35     0.00      562     0.04     0.00     2062       20        0     2082
 2022 254   134     3480     0.31     0.00      565     0.04     0.00     2074       20        0     2095
 2022 255   135     3064     0.32     0.00      568     0.04     0.00     2086       20        0     2106
 2022 256   136     2847     0.33     0.00      571     0.04     0.00     2096       21        0     2117
 2022 257   137     2546     0.33     0.00      574     0.04     0.00     2105       21        0     2126
 2022 258   138     2801     0.34     0.00      576     0.04     0.00     2116       21        0     2137
 2022 259   139     3111     0.33     0.00      580     0.04     0.00     2127       21        0     2148
 2022 260   140     3975     0.09     0.00      584     0.05     0.00     2142       21        0     2163
 2022 261   141     4381     0.27     0.00      588     0.05     0.00     2158       21        0     2179
 2022 262   142     4401     0.39     0.00      592     0.05     0.00     2174       21        0     2195
 2022 263   143     4245     0.38     0.00      597     0.05     0.00     2190       22        0     2211
