*GHG emissions output file

*DSSAT Cropping System Model Ver. 4.8.2.000 -release  JAN 23, 2025 23:43:37

*RUN   1        : silt_loam_13in_irr        MZCER048 UNLI2201    1
 MODEL          : MZCER048 - Maize
 EXPERIMENT     : UNLI2201 MZ IRRIGATED MAIZE PRODUCTION
 DATA PATH      :
 TREATMENT  1   : silt_loam_13in_irr        MZCER048
  
!               |------ Daily (g/ha) -----|--- Cumulative (kg/ha) ---|---- Cum CO2-equiv kg[CO2eq]/ha ---|
!                    CO2      N2O      CH4      CO2      N2O      CH4      CO2      N2O      CH4    Total
!                g[C]/ha  g[N]/ha  g[C]/ha kg[C]/ha kg[N]/ha kg[C]/ha    CO2eq    CO2eq    CO2eq    CO2eq
@YEAR DOY   DAS   CO2GED   N2OGED   CH4GED    CO2EC    N2OEC    CH4EC    CCEQC    NCEQC    MCEQC    TCEQC
 2022 121     1     1191     0.00     0.00        1     0.00     0.00        4        0        0        4
 2022 122     2     1153     0.00     0.00        2     0.00     0.00        9        0        0        9
 2022 123     3      791     0.00     0.00        3     0.00     0.00       12        0        0       12
 2022 124     4      466     0.00     0.00        4     0.00     0.00       13        0        0       13
 2022 125     5      270     0.00     0.00        4     0.00     0.00       14        0        0       14
 2022 126     6      260     0.00     0.00        4     0.00     0.00       15        0        0       15
 2022 127     7      518     0.01     0.00        5     0.00     0.00       17        0        0       17
 2022 128     8     1350     0.00     0.00        6     0.00     0.00       22        0        0       22
 2022 129     9     2239     0.01     0.00        8     0.00     0.00       30        0        0       30
 2022 130    10     2912     0.00     0.00       11     0.00     0.00       41        0        0       41
 2022 131    11     3317     0.00     0.00       14     0.00     0.00       53        0        0       53
 2022 132    12     3842     0.00     0.00       18     0.00     0.00       67        0        0       67
 2022 133    13     4098     0.00     0.00       22     0.00     0.00       82        0        0       82
 2022 134    14     3924     0.01     0.00       26     0.00     0.00       97        0        0       97
 2022 135    15     3845     0.01     0.00       30     0.00     0.00      111        0        0      111
 2022 136    16     3858     0.01     0.00       34     0.00     0.00      125        0        0      125
 2022 137    17     3571     0.01     0.00       38     0.00     0.00      138        0        0      138
 2022 138    18     3588     0.01     0.00       41     0.00     0.00      151        0        0      151
 2022 139    19     3892     0.01     0.00       45     0.00     0.00      165        0        0      166
 2022 140    20     4198     0.01     0.00       49     0.00     0.00      181        0        0      181
 2022 141    21     3747     0.01     0.00       53     0.00     0.00      195        0        0      195
 2022 142    22     2977     0.01     0.00       56     0.00     0.00      206        0        0      206
 2022 143    23     2020     0.01     0.00       58     0.00     0.00      213        0        0      213
 2022 144    24     1344     0.01     0.00       59     0.00     0.00      218        0        0      218
 2022 145    25      669     0.01     0.00       60     0.00     0.00      220        0        0      220
 2022 146    26      929     0.02     0.00       61     0.00     0.00      224        0        0      224
 2022 147    27     1519     0.02     0.00       62     0.00     0.00      229        0        0      229
 2022 148    28     2354     0.02     0.00       65     0.00     0.00      238        0        0      238
 2022 149    29     3103     0.02     0.00       68     0.00     0.00      249        0        0      249
 2022 150    30     3876     0.02     0.00       72     0.00     0.00      264        0        0      264
 2022 151    31     3961     0.02     0.00       76     0.00     0.00      278        0        0      278
 2022 152    32     3885     0.02     0.00       80     0.00     0.00      292        0        0      293
 2022 153    33     3524     0.02     0.00       83     0.00     0.00      305        0        0      305
 2022 154    34     3128     0.02     0.00       86     0.00     0.00      317        0        0      317
 2022 155    35     2837     0.03     0.00       89     0.00     0.00      327        0        0      327
 2022 156    36     3259     0.03     0.00       92     0.00     0.00      339        0        0      339
 2022 157    37     3696     0.03     0.00       96     0.00     0.00      353        0        0      353
 2022 158    38     4180     0.03     0.00      100     0.00     0.00      368        0        0      368
 2022 159    39     4366     0.02     0.00      105     0.00     0.00      384        0        0      384
 2022 160    40     4440     0.03     0.00      109     0.00     0.00      400        0        0      401
 2022 161    41     4455     0.03     0.00      114     0.00     0.00      417        0        0      417
 2022 162    42     4490     0.04     0.00      118     0.00     0.00      433        0        0      433
 2022 163    43     4783     0.04     0.00      123     0.00     0.00      451        0        0      451
 2022 164    44     5300     0.04     0.00      128     0.00     0.00      470        0        0      471
 2022 165    45     6178     0.05     0.00      134     0.00     0.00      493        0        0      493
 2022 166    46     6369     0.05     0.00      141     0.00     0.00      516        0        0      517
 2022 167    47     6443     0.05     0.00      147     0.00     0.00      540        0        0      540
 2022 168    48     6174     0.05     0.00      153     0.00     0.00      563        0        0      563
 2022 169    49     6380     0.06     0.00      160     0.00     0.00      586        0        0      586
 2022 170    50     6362     0.06     0.00      166     0.00     0.00      609        0        0      610
 2022 171    51     6764     0.06     0.00      173     0.00     0.00      634        0        0      635
 2022 172    52     7228     0.06     0.00      180     0.00     0.00      661        1        0      661
 2022 173    53     7087     0.05     0.00      187     0.00     0.00      687        1        0      687
 2022 174    54     6531     0.06     0.00      194     0.00     0.00      711        1        0      711
 2022 175    55     6309     0.07     0.00      200     0.00     0.00      734        1        0      734
 2022 176    56     5999     0.06     0.00      206     0.00     0.00      756        1        0      756
 2022 177    57     5394     0.06     0.00      211     0.00     0.00      776        1        0      776
 2022 178    58     5183     0.06     0.00      217     0.00     0.00      795        1        0      795
 2022 179    59     5320     0.07     0.00      222     0.00     0.00      814        1        0      815
 2022 180    60     5162     0.07     0.00      227     0.00     0.00      833        1        0      834
 2022 181    61     5405     0.08     0.00      232     0.00     0.00      853        1        0      854
 2022 182    62     5842     0.07     0.00      238     0.00     0.00      874        1        0      875
 2022 183    63     6409     0.07     0.00      245     0.00     0.00      898        1        0      899
 2022 184    64     6474     0.07     0.00      251     0.00     0.00      922        1        0      923
 2022 185    65     6717     0.08     0.00      258     0.00     0.00      946        1        0      947
 2022 186    66     6703     0.09     0.00      265     0.00     0.00      971        1        0      972
 2022 187    67     6810     0.09     0.00      271     0.00     0.00      996        1        0      997
 2022 188    68     6868     0.07     0.00      278     0.00     0.00     1021        1        0     1022
 2022 189    69     7018     0.08     0.00      285     0.00     0.00     1047        1        0     1048
 2022 190    70     6909     0.09     0.00      292     0.00     0.00     1072        1        0     1073
 2022 191    71     6906     0.10     0.00      299     0.00     0.00     1098        1        0     1099
 2022 192    72     7042     0.10     0.00      306     0.00     0.00     1123        1        0     1125
 2022 193    73     6895     0.09     0.00      313     0.00     0.00     1149        1        0     1150
 2022 194    74     6763     0.09     0.00      320     0.00     0.00     1174        1        0     1175
 2022 195    75     6909     0.10     0.00      327     0.00     0.00     1199        1        0     1200
 2022 196    76     7129     0.12     0.00      334     0.00     0.00     1225        1        0     1226
 2022 197    77     6879     0.10     0.00      341     0.00     0.00     1250        1        0     1252
 2022 198    78     7245     0.09     0.00      348     0.00     0.00     1277        1        0     1278
 2022 199    79     7532     0.11     0.00      355     0.00     0.00     1305        2        0     1306
 2022 200    80     7723     0.12     0.00      363     0.00     0.00     1333        2        0     1334
 2022 201    81     7374     0.11     0.00      371     0.00     0.00     1360        2        0     1362
 2022 202    82     7235     0.11     0.00      378     0.00     0.00     1387        2        0     1388
 2022 203    83     7268     0.12     0.00      385     0.00     0.00     1413        2        0     1415
 2022 204    84     7360     0.11     0.00      392     0.00     0.00     1440        2        0     1442
 2022 205    85     7472     0.11     0.00      400     0.00     0.00     1468        2        0     1469
 2022 206    86     7345     0.11     0.00      407     0.00     0.00     1495        2        0     1496
 2022 207    87     7027     0.08     0.00      414     0.00     0.00     1520        2        0     1522
 2022 208    88     6741     0.10     0.00      421     0.00     0.00     1545        2        0     1547
 2022 209    89     6385     0.10     0.00      427     0.00     0.00     1569        2        0     1571
 2022 210    90     5770     0.10     0.00      433     0.00     0.00     1590        2        0     1592
 2022 211    91     5663     0.10     0.00      439     0.00     0.00     1610        2        0     1613
 2022 212    92     5848     0.12     0.00      445     0.00     0.00     1632        2        0     1634
 2022 213    93     6052     0.11     0.00      451     0.00     0.00     1654        2        0     1656
 2022 214    94     6421     0.13     0.00      457     0.00     0.00     1678        2        0     1680
 2022 215    95     7051     0.13     0.00      464     0.01     0.00     1704        2        0     1706
 2022 216    96     7371     0.12     0.00      472     0.01     0.00     1731        2        0     1733
 2022 217    97     7615     0.13     0.00      479     0.01     0.00     1759        2        0     1761
 2022 218    98     7934     0.14     0.00      487     0.01     0.00     1788        3        0     1790
 2022 219    99     7900     0.12     0.00      495     0.01     0.00     1817        3        0     1819
 2022 220   100     7115     0.09     0.00      502     0.01     0.00     1843        3        0     1845
 2022 221   101     6775     0.13     0.00      509     0.01     0.00     1868        3        0     1870
 2022 222   102     6817     0.13     0.00      516     0.01     0.00     1893        3        0     1895
 2022 223   103     6600     0.14     0.00      522     0.01     0.00     1917        3        0     1920
 2022 224   104     6610     0.14     0.00      529     0.01     0.00     1941        3        0     1944
 2022 225   105     7265     0.15     0.00      536     0.01     0.00     1968        3        0     1971
 2022 226   106     7659     0.14     0.00      544     0.01     0.00     1996        3        0     1999
 2022 227   107     7728     0.13     0.00      552     0.01     0.00     2024        3        0     2027
 2022 228   108     7580     0.12     0.00      559     0.01     0.00     2052        3        0     2055
 2022 229   109     7060     0.10     0.00      566     0.01     0.00     2078        3        0     2081
 2022 230   110     6651     0.11     0.00      573     0.01     0.00     2102        3        0     2106
 2022 231   111     6501     0.14     0.00      579     0.01     0.00     2126        3        0     2130
 2022 232   112     6120     0.13     0.00      585     0.01     0.00     2149        3        0     2152
 2022 233   113     5784     0.13     0.00      591     0.01     0.00     2170        3        0     2173
 2022 234   114     6057     0.14     0.00      597     0.01     0.00     2192        4        0     2196
 2022 235   115     6190     0.14     0.00      604     0.01     0.00     2215        4        0     2219
 2022 236   116     6219     0.14     0.00      610     0.01     0.00     2238        4        0     2241
 2022 237   117     6429     0.13     0.00      616     0.01     0.00     2261        4        0     2265
 2022 238   118     6969     0.14     0.00      623     0.01     0.00     2287        4        0     2291
 2022 239   119     7215     0.12     0.00      630     0.01     0.00     2313        4        0     2317
 2022 240   120     7518     0.15     0.00      638     0.01     0.00     2341        4        0     2345
 2022 241   121     7733     0.15     0.00      646     0.01     0.00     2369        4        0     2373
 2022 242   122     7631     0.14     0.00      653     0.01     0.00     2397        4        0     2401
 2022 243   123     7318     0.15     0.00      661     0.01     0.00     2424        4        0     2428
 2022 244   124     7248     0.13     0.00      668     0.01     0.00     2451        4        0     2455
 2022 245   125     7024     0.15     0.00      675     0.01     0.00     2477        4        0     2481
 2022 246   126     6973     0.15     0.00      682     0.01     0.00     2502        4        0     2507
 2022 247   127     6859     0.15     0.00      689     0.01     0.00     2527        4        0     2532
 2022 248   128     6706     0.15     0.00      695     0.01     0.00     2552        4        0     2556
 2022 249   129     6554     0.15     0.00      702     0.01     0.00     2576        5        0     2581
 2022 250   130     6767     0.16     0.00      709     0.01     0.00     2601        5        0     2605
 2022 251   131     6628     0.15     0.00      715     0.01     0.00     2625        5        0     2630
 2022 252   132     7256     0.16     0.00      723     0.01     0.00     2652        5        0     2657
 2022 253   133     7001     0.12     0.00      730     0.01     0.00     2678        5        0     2682
 2022 254   134     6353     0.12     0.00      736     0.01     0.00     2701        5        0     2706
 2022 255   135     5662     0.14     0.00      742     0.01     0.00     2722        5        0     2727
 2022 256   136     5340     0.15     0.00      747     0.01     0.00     2741        5        0     2746
 2022 257   137     4740     0.14     0.00      752     0.01     0.00     2759        5        0     2764
 2022 258   138     5430     0.14     0.00      757     0.01     0.00     2779        5        0     2784
 2022 259   139     6088     0.15     0.00      763     0.01     0.00     2801        5        0     2806
 2022 260   140     6581     0.14     0.00      770     0.01     0.00     2825        5        0     2830
 2022 261   141     6798     0.15     0.00      777     0.01     0.00     2850        5        0     2855
 2022 262   142     6900     0.15     0.00      783     0.01     0.00     2875        5        0     2881
 2022 263   143     6797     0.15     0.00      790     0.01     0.00     2900        5        0     2906
