*SOIL ORGANIC N BALANCE

*DSSAT Cropping System Model Ver. 4.8.2.000 -release  JAN 23, 2025 23:43:37

*RUN   1        : silt_loam_13in_irr        MZCER048 UNLI2201    1
 MODEL          : MZCER048 - Maize
 EXPERIMENT     : UNLI2201 MZ IRRIGATED MAIZE PRODUCTION
 DATA PATH      :
 TREATMENT  1   : silt_loam_13in_irr        MZCER048
  
!                 ----- STATE VARS ------   ---- ADDED TODAY ---- REMOVED     DAILY     CUMUL
@YEAR DOY   DAS      HUMN     FON    RESN   ARESN   ASENN AIMMOBN RMINERP      DBAL      CBAL
 2022 120     0  14871.79   0.000   0.000   0.000   0.000   0.000   0.000     0.000     0.000
 2022 121     1  14871.67   0.000   0.000   0.000   0.000   0.000   0.119    -0.000    -0.000
 2022 122     2  14871.56   0.000   0.000   0.000   0.000   0.000   0.115     0.000     0.000
 2022 123     3  14871.48   0.000   0.000   0.000   0.000   0.000   0.079     0.001     0.001
 2022 124     4  14871.43   0.000   0.000   0.000   0.000   0.000   0.047    -0.000     0.001
 2022 125     5  14871.40   0.000   0.000   0.000   0.000   0.000   0.027    -0.000     0.000
 2022 126     6  14871.38   0.000   0.000   0.000   0.000   0.000   0.026    -0.000     0.000
 2022 127     7  14871.33   0.000   0.000   0.000   0.000   0.000   0.052     0.000     0.000
 2022 128     8  14871.19   0.000   0.000   0.000   0.000   0.000   0.135     0.000     0.000
 2022 129     9  14870.97   0.000   0.000   0.000   0.000   0.000   0.224    -0.001    -0.000
 2022 130    10  14870.67   0.000   0.000   0.000   0.000   0.000   0.291     0.000    -0.000
 2022 131    11  14870.34   0.000   0.000   0.000   0.000   0.000   0.332     0.001     0.000
 2022 132    12  14869.96   0.000   0.000   0.000   0.000   0.000   0.384    -0.001    -0.000
 2022 133    13  14869.55   0.000   0.000   0.000   0.000   0.000   0.410     0.002     0.001
 2022 134    14  14869.16   0.000   0.000   0.000   0.000   0.000   0.392    -0.000     0.001
 2022 135    15  14868.77   0.000   0.000   0.000   0.000   0.000   0.385    -0.001    -0.000
 2022 136    16  14868.39   0.000   0.000   0.000   0.000   0.000   0.386     0.001     0.001
 2022 137    17  14868.03   0.000   0.000   0.000   0.000   0.000   0.357     0.001     0.002
 2022 138    18  14867.67   0.000   0.000   0.000   0.000   0.000   0.359    -0.002     0.000
 2022 139    19  14867.28   0.000   0.000   0.000   0.000   0.000   0.389    -0.000    -0.000
 2022 140    20  14866.86   0.000   0.000   0.000   0.000   0.000   0.420     0.001     0.001
 2022 141    21  14866.49   0.000   0.000   0.000   0.000   0.000   0.375     0.001     0.001
 2022 142    22  14866.19   0.000   0.000   0.000   0.000   0.000   0.298    -0.000     0.001
 2022 143    23  14865.99   0.000   0.000   0.000   0.000   0.000   0.202    -0.000     0.001
 2022 144    24  14865.85   0.000   0.000   0.000   0.000   0.000   0.134     0.001     0.001
 2022 145    25  14865.79   0.000   0.000   0.000   0.000   0.000   0.067    -0.000     0.001
 2022 146    26  14865.69   0.000   0.000   0.000   0.000   0.000   0.093     0.000     0.001
 2022 147    27  14865.54   0.000   0.000   0.000   0.000   0.000   0.152    -0.001    -0.000
 2022 148    28  14865.31   0.000   0.000   0.000   0.000   0.000   0.235     0.001     0.001
 2022 149    29  14865.00   0.000   0.000   0.000   0.000   0.000   0.310    -0.000     0.001
 2022 150    30  14864.61   0.000   0.000   0.000   0.000   0.000   0.388    -0.000     0.000
 2022 151    31  14864.21   0.000   0.000   0.000   0.000   0.000   0.396    -0.000     0.000
 2022 152    32  14863.82   0.000   0.000   0.000   0.000   0.000   0.388    -0.000    -0.000
 2022 153    33  14863.47   0.000   0.000   0.000   0.000   0.000   0.352     0.001     0.001
 2022 154    34  14863.16   0.000   0.000   0.000   0.000   0.000   0.313    -0.001     0.000
 2022 155    35  14862.88   0.000   0.000   0.000   0.000   0.000   0.284     0.001     0.002
 2022 156    36  14862.55   0.000   0.000   0.000   0.000   0.000   0.326    -0.002    -0.001
 2022 157    37  14862.18   0.000   0.000   0.000   0.000   0.000   0.370     0.001     0.001
 2022 158    38  14861.76   0.000   0.000   0.000   0.000   0.000   0.418     0.000     0.001
 2022 159    39  14861.32   0.000   0.000   0.000   0.000   0.000   0.437    -0.001    -0.000
 2022 160    40  14860.88   0.000   0.000   0.000   0.000   0.000   0.444     0.002     0.001
 2022 161    41  14860.44   0.000   0.000   0.000   0.000   0.000   0.445     0.000     0.002
 2022 162    42  14859.99   0.000   0.000   0.000   0.000   0.000   0.449    -0.000     0.001
 2022 163    43  14859.51   0.002   0.000   0.000   0.002   0.000   0.478     0.001     0.002
 2022 164    44  14858.98   0.004   0.000   0.000   0.002   0.000   0.530     0.001     0.003
 2022 165    45  14858.36   0.005   0.000   0.000   0.002   0.000   0.618    -0.000     0.003
 2022 166    46  14857.72   0.007   0.000   0.000   0.002   0.000   0.637     0.000     0.003
 2022 167    47  14857.08   0.009   0.000   0.000   0.002   0.000   0.644    -0.000     0.003
 2022 168    48  14856.46   0.012   0.000   0.000   0.002   0.000   0.617    -0.000     0.003
 2022 169    49  14855.82   0.015   0.000   0.000   0.003   0.000   0.638    -0.000     0.003
 2022 170    50  14855.19   0.018   0.000   0.000   0.003   0.000   0.636     0.002     0.004
 2022 171    51  14854.51   0.021   0.000   0.000   0.003   0.000   0.676     0.000     0.005
 2022 172    52  14853.79   0.025   0.000   0.000   0.004   0.000   0.723    -0.000     0.004
 2022 173    53  14853.08   0.029   0.000   0.000   0.004   0.000   0.709    -0.000     0.004
 2022 174    54  14852.43   0.033   0.000   0.000   0.004   0.000   0.653     0.001     0.005
 2022 175    55  14851.80   0.038   0.000   0.000   0.005   0.000   0.631    -0.000     0.005
 2022 176    56  14851.20   0.042   0.000   0.000   0.005   0.000   0.600    -0.000     0.005
 2022 177    57  14850.66   0.047   0.000   0.000   0.005   0.000   0.539    -0.001     0.004
 2022 178    58  14850.14   0.053   0.000   0.000   0.005   0.000   0.518     0.002     0.006
 2022 179    59  14849.61   0.060   0.000   0.000   0.005   0.000   0.525     0.001     0.007
 2022 180    60  14849.10   0.067   0.000   0.000   0.006   0.000   0.509    -0.000     0.007
 2022 181    61  14848.56   0.075   0.000   0.000   0.006   0.000   0.533    -0.001     0.006
 2022 182    62  14847.99   0.083   0.000   0.000   0.006   0.000   0.576     0.001     0.007
 2022 183    63  14847.36   0.094   0.000   0.000   0.006   0.000   0.624     0.001     0.008
 2022 184    64  14846.72   0.104   0.000   0.000   0.006   0.000   0.631    -0.002     0.006
 2022 185    65  14846.07   0.114   0.000   0.000   0.007   0.000   0.654     0.001     0.008
 2022 186    66  14845.41   0.125   0.000   0.000   0.007   0.000   0.653    -0.000     0.007
 2022 187    67  14844.74   0.135   0.000   0.000   0.007   0.000   0.663     0.000     0.008
 2022 188    68  14844.08   0.150   0.000   0.000   0.007   0.000   0.653     0.000     0.008
 2022 189    69  14843.41   0.165   0.000   0.000   0.007   0.000   0.667    -0.000     0.007
 2022 190    70  14842.75   0.179   0.000   0.000   0.007   0.000   0.657     0.001     0.008
 2022 191    71  14842.08   0.193   0.000   0.000   0.008   0.000   0.657     0.001     0.009
 2022 192    72  14841.41   0.206   0.000   0.000   0.008   0.000   0.670    -0.000     0.009
 2022 193    73  14840.75   0.219   0.000   0.000   0.008   0.000   0.656    -0.000     0.009
 2022 194    74  14840.10   0.232   0.000   0.000   0.008   0.000   0.644     0.001     0.010
 2022 195    75  14839.43   0.245   0.000   0.000   0.008   0.000   0.658    -0.001     0.009
 2022 196    76  14838.75   0.258   0.000   0.000   0.008   0.000   0.678     0.002     0.011
 2022 197    77  14838.09   0.270   0.000   0.000   0.009   0.000   0.655    -0.002     0.009
 2022 198    78  14837.40   0.282   0.000   0.000   0.009   0.000   0.690     0.001     0.010
 2022 199    79  14836.68   0.295   0.000   0.000   0.009   0.000   0.717    -0.000     0.010
 2022 200    80  14835.94   0.307   0.000   0.000   0.009   0.000   0.735     0.001     0.011
 2022 201    81  14835.24   0.319   0.000   0.000   0.009   0.000   0.702    -0.002     0.009
 2022 202    82  14834.55   0.331   0.000   0.000   0.010   0.000   0.689     0.002     0.010
 2022 203    83  14833.85   0.343   0.000   0.000   0.010   0.000   0.691    -0.002     0.009
 2022 204    84  14833.15   0.355   0.000   0.000   0.010   0.000   0.700     0.002     0.011
 2022 205    85  14832.45   0.369   0.000   0.000   0.010   0.000   0.703    -0.000     0.011
 2022 206    86  14831.75   0.382   0.000   0.000   0.010   0.000   0.691    -0.000     0.010
 2022 207    87  14831.08   0.395   0.000   0.000   0.010   0.000   0.662    -0.000     0.010
 2022 208    88  14830.45   0.408   0.000   0.000   0.010   0.000   0.635     0.002     0.012
 2022 209    89  14829.84   0.420   0.000   0.000   0.011   0.000   0.601    -0.001     0.011
 2022 210    90  14829.30   0.432   0.000   0.000   0.011   0.000   0.543     0.002     0.012
 2022 211    91  14828.77   0.444   0.000   0.000   0.011   0.000   0.533    -0.001     0.011
 2022 212    92  14828.21   0.456   0.000   0.000   0.011   0.000   0.550     0.000     0.012
 2022 213    93  14827.64   0.468   0.000   0.000   0.011   0.000   0.569     0.000     0.012
 2022 214    94  14827.04   0.480   0.000   0.000   0.011   0.000   0.603     0.000     0.012
 2022 215    95  14826.38   0.492   0.000   0.000   0.011   0.000   0.662    -0.000     0.012
 2022 216    96  14825.69   0.504   0.000   0.000   0.011   0.000   0.692     0.000     0.012
 2022 217    97  14824.97   0.516   0.000   0.000   0.011   0.000   0.715    -0.001     0.011
 2022 218    98  14824.22   0.527   0.000   0.000   0.012   0.000   0.745    -0.000     0.011
 2022 219    99  14823.48   0.539   0.000   0.000   0.012   0.000   0.743     0.003     0.013
 2022 220   100  14822.81   0.550   0.000   0.000   0.012   0.000   0.670    -0.000     0.013
 2022 221   101  14822.18   0.562   0.000   0.000   0.012   0.000   0.637     0.000     0.013
 2022 222   102  14821.54   0.573   0.000   0.000   0.013   0.000   0.641     0.001     0.014
 2022 223   103  14820.92   0.585   0.000   0.000   0.013   0.000   0.620     0.000     0.014
 2022 224   104  14820.30   0.596   0.000   0.000   0.013   0.000   0.621    -0.002     0.012
 2022 225   105  14819.62   0.608   0.000   0.000   0.013   0.000   0.682     0.001     0.013
 2022 226   106  14818.90   0.619   0.000   0.000   0.013   0.000   0.719    -0.000     0.013
 2022 227   107  14818.18   0.630   0.000   0.000   0.014   0.000   0.726     0.000     0.014
 2022 228   108  14817.47   0.642   0.000   0.000   0.014   0.000   0.712    -0.001     0.013
 2022 229   109  14816.81   0.654   0.000   0.000   0.014   0.000   0.664     0.002     0.015
 2022 230   110  14816.18   0.666   0.000   0.000   0.015   0.000   0.625     0.000     0.015
 2022 231   111  14815.58   0.678   0.000   0.000   0.015   0.000   0.611     0.000     0.015
 2022 232   112  14815.00   0.691   0.000   0.000   0.015   0.000   0.575    -0.001     0.015
 2022 233   113  14814.46   0.704   0.000   0.000   0.015   0.000   0.543     0.001     0.016
 2022 234   114  14813.90   0.717   0.000   0.000   0.016   0.000   0.568     0.001     0.017
 2022 235   115  14813.32   0.730   0.000   0.000   0.016   0.000   0.580    -0.001     0.016
 2022 236   116  14812.74   0.743   0.000   0.000   0.016   0.000   0.582     0.001     0.017
 2022 237   117  14812.14   0.756   0.000   0.000   0.016   0.000   0.602    -0.001     0.016
 2022 238   118  14811.50   0.769   0.000   0.000   0.017   0.000   0.652     0.002     0.018
 2022 239   119  14810.82   0.782   0.000   0.000   0.017   0.000   0.675    -0.001     0.017
 2022 240   120  14810.12   0.795   0.000   0.000   0.017   0.000   0.703    -0.000     0.017
 2022 241   121  14809.41   0.808   0.000   0.000   0.018   0.000   0.723     0.000     0.017
 2022 242   122  14808.70   0.821   0.000   0.000   0.018   0.000   0.713     0.002     0.019
 2022 243   123  14808.02   0.835   0.000   0.000   0.019   0.000   0.684     0.001     0.020
 2022 244   124  14807.35   0.848   0.000   0.000   0.019   0.000   0.678    -0.001     0.019
 2022 245   125  14806.70   0.863   0.000   0.000   0.020   0.000   0.657    -0.001     0.018
 2022 246   126  14806.05   0.877   0.000   0.000   0.020   0.000   0.652     0.002     0.020
 2022 247   127  14805.41   0.892   0.000   0.000   0.021   0.000   0.642     0.000     0.021
 2022 248   128  14804.79   0.907   0.000   0.000   0.021   0.000   0.627     0.000     0.021
 2022 249   129  14804.18   0.923   0.000   0.000   0.022   0.000   0.613     0.000     0.021
 2022 250   130  14803.56   0.938   0.000   0.000   0.022   0.000   0.633     0.001     0.022
 2022 251   131  14802.95   0.954   0.000   0.000   0.022   0.000   0.620     0.000     0.022
 2022 252   132  14802.28   0.971   0.000   0.000   0.023   0.000   0.672     0.001     0.022
 2022 253   133  14801.64   0.988   0.000   0.000   0.023   0.000   0.649     0.000     0.022
 2022 254   134  14801.05   1.005   0.000   0.000   0.024   0.000   0.594     0.001     0.023
 2022 255   135  14800.53   1.024   0.000   0.000   0.024   0.000   0.526     0.002     0.025
 2022 256   136  14800.04   1.043   0.000   0.000   0.025   0.000   0.496    -0.001     0.024
 2022 257   137  14799.60   1.063   0.000   0.000   0.025   0.000   0.444     0.001     0.025
 2022 258   138  14799.10   1.082   0.000   0.000   0.025   0.000   0.504     0.000     0.026
 2022 259   139  14798.55   1.100   0.000   0.000   0.025   0.000   0.564    -0.001     0.025
 2022 260   140  14797.95   1.119   0.000   0.000   0.026   0.000   0.604     0.000     0.025
 2022 261   141  14797.33   1.110   0.000   0.000   0.000   0.000   0.629    -0.026    -0.001
 2022 262   142  14796.70   1.100   0.000   0.000   0.000   0.000   0.645     0.002     0.001
 2022 263   143  14796.07   1.091   0.000   0.000   0.000   0.000   0.637    -0.001    -0.000


!                                        INITIAL Year/Doy      FINAL Year/Doy
!                                                2022/121            2022/263
!SOIL N BALANCE                                 -----------kg N/ha-----------

!   Soil Humus N                                 14871.79            14796.07
!   Soil Litter N                                    0.00                1.09
!   N in Surface Residue                             0.00                0.00

!   Added to / Removed from Soil:
!   N in Harvest Residues from Previous Crop         0.00
!   N from Organic Applications                      0.00
!   N from senesced plant matter                     1.16
!   N immobilized                                    0.00
!   N mineralized                                                       75.80

!   Total N balance                              14872.96            14872.95
!   Balance                                                            -0.001
