*SOIL ORGANIC N BALANCE

*DSSAT Cropping System Model Ver. 4.8.2.000 -release  JAN 17, 2025 18:38:41

*RUN   1        : silt_loam_13in_irr        MZCER048 UNLI2201    1
 MODEL          : MZCER048 - Maize
 EXPERIMENT     : UNLI2201 MZ IRRIGATED MAIZE PRODUCTION
 DATA PATH      :
 TREATMENT  1   : silt_loam_13in_irr        MZCER048
  
!                 ----- STATE VARS ------   ---- ADDED TODAY ---- REMOVED     DAILY     CUMUL
@YEAR DOY   DAS      HUMN     FON    RESN   ARESN   ASENN AIMMOBN RMINERP      DBAL      CBAL
 2022 120     0  14871.79   0.000   0.000   0.000   0.000   0.000   0.000     0.000     0.000
 2022 121     1  14871.67   0.000   0.000   0.000   0.000   0.000   0.119    -0.000    -0.000
 2022 122     2  14871.56   0.000   0.000   0.000   0.000   0.000   0.115     0.000     0.000
 2022 123     3  14871.48   0.000   0.000   0.000   0.000   0.000   0.079     0.001     0.001
 2022 124     4  14871.43   0.000   0.000   0.000   0.000   0.000   0.047    -0.000     0.001
 2022 125     5  14871.40   0.000   0.000   0.000   0.000   0.000   0.027    -0.000     0.000
 2022 126     6  14871.38   0.000   0.000   0.000   0.000   0.000   0.026    -0.000     0.000
 2022 127     7  14871.33   0.000   0.000   0.000   0.000   0.000   0.052     0.000     0.000
 2022 128     8  14871.19   0.000   0.000   0.000   0.000   0.000   0.135     0.000     0.000
 2022 129     9  14870.97   0.000   0.000   0.000   0.000   0.000   0.224    -0.001    -0.000
 2022 130    10  14870.67   0.000   0.000   0.000   0.000   0.000   0.291     0.000    -0.000
 2022 131    11  14870.34   0.000   0.000   0.000   0.000   0.000   0.332     0.001     0.000
 2022 132    12  14869.96   0.000   0.000   0.000   0.000   0.000   0.384    -0.001    -0.000
 2022 133    13  14869.55   0.000   0.000   0.000   0.000   0.000   0.410     0.002     0.001
 2022 134    14  14869.16   0.000   0.000   0.000   0.000   0.000   0.392    -0.000     0.001
 2022 135    15  14868.77   0.000   0.000   0.000   0.000   0.000   0.385    -0.001    -0.000
 2022 136    16  14868.39   0.000   0.000   0.000   0.000   0.000   0.386     0.001     0.001
 2022 137    17  14868.03   0.000   0.000   0.000   0.000   0.000   0.357     0.001     0.002
 2022 138    18  14867.67   0.000   0.000   0.000   0.000   0.000   0.360    -0.001     0.001
 2022 139    19  14867.27   0.000   0.000   0.000   0.000   0.000   0.395    -0.001     0.000
 2022 140    20  14866.85   0.000   0.000   0.000   0.000   0.000   0.426     0.001     0.001
 2022 141    21  14866.47   0.000   0.000   0.000   0.000   0.000   0.381    -0.001    -0.000
 2022 142    22  14866.16   0.000   0.000   0.000   0.000   0.000   0.304     0.001     0.001
 2022 143    23  14865.96   0.000   0.000   0.000   0.000   0.000   0.208    -0.001     0.000
 2022 144    24  14865.82   0.000   0.000   0.000   0.000   0.000   0.139    -0.000    -0.000
 2022 145    25  14865.75   0.000   0.000   0.000   0.000   0.000   0.072     0.001     0.001
 2022 146    26  14865.65   0.000   0.000   0.000   0.000   0.000   0.100     0.000     0.001
 2022 147    27  14865.49   0.000   0.000   0.000   0.000   0.000   0.159     0.000     0.001
 2022 148    28  14865.24   0.000   0.000   0.000   0.000   0.000   0.244     0.001     0.001
 2022 149    29  14864.92   0.000   0.000   0.000   0.000   0.000   0.320    -0.001     0.000
 2022 150    30  14864.52   0.000   0.000   0.000   0.000   0.000   0.399     0.000     0.000
 2022 151    31  14864.12   0.000   0.000   0.000   0.000   0.000   0.407     0.001     0.001
 2022 152    32  14863.72   0.002   0.000   0.000   0.002   0.000   0.401     0.001     0.003
 2022 153    33  14863.35   0.004   0.000   0.000   0.002   0.000   0.363     0.000     0.003
 2022 154    34  14863.03   0.007   0.000   0.000   0.003   0.000   0.322    -0.000     0.003
 2022 155    35  14862.74   0.010   0.000   0.000   0.003   0.000   0.290     0.001     0.004
 2022 156    36  14862.41   0.014   0.000   0.000   0.004   0.000   0.330     0.000     0.005
 2022 157    37  14862.04   0.019   0.000   0.000   0.005   0.000   0.371     0.001     0.006
 2022 158    38  14861.62   0.025   0.000   0.000   0.005   0.000   0.421    -0.001     0.005
 2022 159    39  14861.17   0.031   0.000   0.000   0.006   0.000   0.447     0.001     0.005
 2022 160    40  14860.71   0.037   0.000   0.000   0.006   0.000   0.457     0.002     0.007
 2022 161    41  14860.26   0.044   0.000   0.000   0.007   0.000   0.457     0.000     0.008
 2022 162    42  14859.80   0.051   0.000   0.000   0.007   0.000   0.460    -0.000     0.007
 2022 163    43  14859.31   0.059   0.000   0.000   0.008   0.000   0.487     0.000     0.008
 2022 164    44  14858.77   0.067   0.000   0.000   0.008   0.000   0.542     0.001     0.009
 2022 165    45  14858.15   0.076   0.000   0.000   0.009   0.000   0.620    -0.001     0.008
 2022 166    46  14857.52   0.085   0.000   0.000   0.009   0.000   0.629     0.002     0.010
 2022 167    47  14856.89   0.095   0.000   0.000   0.010   0.000   0.625     0.000     0.010
 2022 168    48  14856.31   0.106   0.000   0.000   0.011   0.000   0.588     0.001     0.011
 2022 169    49  14855.71   0.117   0.000   0.000   0.011   0.000   0.592     0.001     0.012
 2022 170    50  14855.14   0.130   0.000   0.000   0.012   0.000   0.575     0.001     0.013
 2022 171    51  14854.54   0.143   0.000   0.000   0.013   0.000   0.598    -0.001     0.012
 2022 172    52  14853.91   0.156   0.000   0.000   0.013   0.000   0.626     0.001     0.013
 2022 173    53  14853.31   0.171   0.000   0.000   0.013   0.000   0.607     0.001     0.014
 2022 174    54  14852.76   0.186   0.000   0.000   0.014   0.000   0.548     0.000     0.014
 2022 175    55  14852.24   0.203   0.000   0.000   0.015   0.000   0.516     0.001     0.015
 2022 176    56  14851.75   0.221   0.000   0.000   0.015   0.000   0.485     0.001     0.016
 2022 177    57  14851.32   0.239   0.000   0.000   0.016   0.000   0.429    -0.000     0.016
 2022 178    58  14850.91   0.257   0.000   0.000   0.016   0.000   0.407     0.000     0.016
 2022 179    59  14850.50   0.275   0.000   0.000   0.017   0.000   0.405     0.001     0.017
 2022 180    60  14850.12   0.294   0.000   0.000   0.017   0.000   0.386    -0.000     0.017
 2022 181    61  14849.72   0.314   0.000   0.000   0.018   0.000   0.395     0.001     0.018
 2022 182    62  14849.30   0.334   0.000   0.000   0.018   0.000   0.421     0.000     0.018
 2022 183    63  14848.84   0.354   0.000   0.000   0.018   0.000   0.451     0.001     0.019
 2022 184    64  14848.31   0.383   0.000   0.000   0.019   0.000   0.527     0.001     0.020
 2022 185    65  14847.74   0.414   0.000   0.000   0.020   0.000   0.559     0.000     0.020
 2022 186    66  14847.16   0.445   0.000   0.000   0.020   0.000   0.566     0.000     0.021
 2022 187    67  14846.56   0.479   0.000   0.000   0.021   0.000   0.587     0.000     0.021
 2022 188    68  14845.95   0.512   0.000   0.000   0.022   0.000   0.599     0.001     0.022
 2022 189    69  14845.32   0.545   0.000   0.000   0.022   0.000   0.617    -0.000     0.022
 2022 190    70  14844.68   0.580   0.000   0.000   0.023   0.000   0.628     0.001     0.023
 2022 191    71  14844.04   0.613   0.000   0.000   0.023   0.000   0.628     0.001     0.024
 2022 192    72  14843.40   0.645   0.000   0.000   0.024   0.000   0.630    -0.000     0.024
 2022 193    73  14842.79   0.676   0.000   0.000   0.024   0.000   0.613     0.002     0.025
 2022 194    74  14842.19   0.706   0.000   0.000   0.024   0.000   0.592    -0.001     0.025
 2022 195    75  14841.59   0.736   0.000   0.000   0.025   0.000   0.586    -0.000     0.025
 2022 196    76  14841.02   0.766   0.000   0.000   0.025   0.000   0.576     0.002     0.026
 2022 197    77  14840.47   0.796   0.000   0.000   0.026   0.000   0.537     0.000     0.027
 2022 198    78  14839.92   0.827   0.000   0.000   0.026   0.000   0.553     0.000     0.027
 2022 199    79  14839.36   0.857   0.000   0.000   0.027   0.000   0.555     0.000     0.027
 2022 200    80  14838.81   0.888   0.000   0.000   0.027   0.000   0.544    -0.001     0.027
 2022 201    81  14838.31   0.919   0.000   0.000   0.027   0.000   0.502     0.002     0.029
 2022 202    82  14837.83   0.949   0.000   0.000   0.028   0.000   0.477    -0.001     0.027
 2022 203    83  14837.31   0.981   0.000   0.000   0.028   0.000   0.517     0.001     0.029
 2022 204    84  14836.78   1.013   0.000   0.000   0.029   0.000   0.526     0.001     0.030
 2022 205    85  14836.26   1.046   0.000   0.000   0.029   0.000   0.510    -0.000     0.030
 2022 206    86  14835.77   1.079   0.000   0.000   0.029   0.000   0.486     0.001     0.031
 2022 207    87  14835.29   1.112   0.000   0.000   0.030   0.000   0.477    -0.001     0.030
 2022 208    88  14834.84   1.144   0.000   0.000   0.030   0.000   0.452     0.001     0.031
 2022 209    89  14834.37   1.179   0.000   0.000   0.030   0.000   0.463    -0.001     0.030
 2022 210    90  14833.93   1.213   0.000   0.000   0.031   0.000   0.433     0.000     0.031
 2022 211    91  14833.50   1.247   0.000   0.000   0.031   0.000   0.430     0.002     0.033
 2022 212    92  14833.06   1.280   0.000   0.000   0.031   0.000   0.435    -0.002     0.031
 2022 213    93  14832.62   1.315   0.000   0.000   0.032   0.000   0.444     0.000     0.031
 2022 214    94  14832.16   1.349   0.000   0.000   0.032   0.000   0.459     0.003     0.033
 2022 215    95  14831.66   1.384   0.000   0.000   0.032   0.000   0.497    -0.001     0.032
 2022 216    96  14831.15   1.418   0.000   0.000   0.032   0.000   0.504     0.000     0.033
 2022 217    97  14830.64   1.453   0.000   0.000   0.033   0.000   0.505     0.000     0.033
 2022 218    98  14830.13   1.488   0.000   0.000   0.033   0.000   0.508     0.000     0.033
 2022 219    99  14829.63   1.524   0.000   0.000   0.033   0.000   0.495     0.000     0.033
 2022 220   100  14829.18   1.560   0.000   0.000   0.034   0.000   0.452     0.002     0.035
 2022 221   101  14828.76   1.596   0.000   0.000   0.034   0.000   0.419    -0.000     0.035
 2022 222   102  14828.35   1.633   0.000   0.000   0.035   0.000   0.409     0.000     0.035
 2022 223   103  14827.96   1.671   0.000   0.000   0.035   0.000   0.386     0.000     0.035
 2022 224   104  14827.58   1.709   0.000   0.000   0.035   0.000   0.379     0.000     0.035
 2022 225   105  14827.17   1.747   0.000   0.000   0.036   0.000   0.405     0.000     0.036
 2022 226   106  14826.75   1.786   0.000   0.000   0.036   0.000   0.418     0.000     0.036
 2022 227   107  14826.33   1.825   0.000   0.000   0.036   0.000   0.416     0.000     0.036
 2022 228   108  14825.87   1.864   0.000   0.000   0.037   0.000   0.452     0.000     0.037
 2022 229   109  14825.44   1.903   0.000   0.000   0.037   0.000   0.435     0.000     0.037
 2022 230   110  14825.03   1.942   0.000   0.000   0.037   0.000   0.405     0.001     0.038
 2022 231   111  14824.64   1.981   0.000   0.000   0.038   0.000   0.390     0.001     0.039
 2022 232   112  14824.28   2.020   0.000   0.000   0.038   0.000   0.362    -0.001     0.038
 2022 233   113  14823.94   2.060   0.000   0.000   0.039   0.000   0.336     0.000     0.039
 2022 234   114  14823.59   2.100   0.000   0.000   0.039   0.000   0.344     0.000     0.039
 2022 235   115  14823.25   2.141   0.000   0.000   0.040   0.000   0.344     0.001     0.040
 2022 236   116  14822.91   2.183   0.000   0.000   0.040   0.000   0.340    -0.000     0.040
 2022 237   117  14822.56   2.225   0.000   0.000   0.040   0.000   0.346     0.000     0.040
 2022 238   118  14822.19   2.267   0.000   0.000   0.041   0.000   0.368     0.001     0.041
 2022 239   119  14821.81   2.310   0.000   0.000   0.041   0.000   0.377    -0.000     0.041
 2022 240   120  14821.42   2.353   0.000   0.000   0.041   0.000   0.385     0.001     0.042
 2022 241   121  14821.03   2.396   0.000   0.000   0.042   0.000   0.390     0.000     0.042
 2022 242   122  14820.65   2.440   0.000   0.000   0.042   0.000   0.382     0.001     0.043
 2022 243   123  14820.28   2.484   0.000   0.000   0.042   0.000   0.364    -0.001     0.042
 2022 244   124  14819.92   2.528   0.000   0.000   0.043   0.000   0.367     0.002     0.044
 2022 245   125  14819.56   2.573   0.000   0.000   0.043   0.000   0.353     0.001     0.045
 2022 246   126  14819.21   2.618   0.000   0.000   0.043   0.000   0.347     0.000     0.045
 2022 247   127  14818.87   2.664   0.000   0.000   0.044   0.000   0.338    -0.001     0.044
 2022 248   128  14818.54   2.710   0.000   0.000   0.044   0.000   0.328     0.001     0.045
 2022 249   129  14818.22   2.756   0.000   0.000   0.044   0.000   0.319     0.001     0.046
 2022 250   130  14817.89   2.803   0.000   0.000   0.045   0.000   0.325     0.000     0.046
 2022 251   131  14817.58   2.850   0.000   0.000   0.045   0.000   0.317     0.000     0.046
 2022 252   132  14817.24   2.897   0.000   0.000   0.045   0.000   0.337    -0.002     0.045
 2022 253   133  14816.91   2.944   0.000   0.000   0.046   0.000   0.328     0.002     0.047
 2022 254   134  14816.58   2.991   0.000   0.000   0.046   0.000   0.328    -0.000     0.047
 2022 255   135  14816.29   3.038   0.000   0.000   0.047   0.000   0.292    -0.000     0.047
 2022 256   136  14816.01   3.086   0.000   0.000   0.047   0.000   0.274    -0.000     0.047
 2022 257   137  14815.76   3.134   0.000   0.000   0.047   0.000   0.247     0.002     0.048
 2022 258   138  14815.49   3.182   0.000   0.000   0.048   0.000   0.273     0.000     0.048
 2022 259   139  14815.19   3.230   0.000   0.000   0.048   0.000   0.302    -0.001     0.047
 2022 260   140  14814.84   3.277   0.000   0.000   0.048   0.000   0.352     0.000     0.048
 2022 261   141  14814.46   3.275   0.000   0.000   0.000   0.000   0.376    -0.048    -0.000
 2022 262   142  14814.08   3.273   0.000   0.000   0.000   0.000   0.380     0.000    -0.000
 2022 263   143  14813.71   3.269   0.000   0.000   0.000   0.000   0.374     0.001     0.001


!                                        INITIAL Year/Doy      FINAL Year/Doy
!                                                2022/121            2022/263
!SOIL N BALANCE                                 -----------kg N/ha-----------

!   Soil Humus N                                 14871.79            14813.71
!   Soil Litter N                                    0.00                3.27
!   N in Surface Residue                             0.00                0.00

!   Added to / Removed from Soil:
!   N in Harvest Residues from Previous Crop         0.00
!   N from Organic Applications                      0.00
!   N from senesced plant matter                     3.00
!   N immobilized                                    0.00
!   N mineralized                                                       57.80

!   Total N balance                              14874.79            14874.79
!   Balance                                                             0.001
