*GHG emissions output file

*DSSAT Cropping System Model Ver. 4.8.2.000 -release  NOV 03, 2024 05:23:59

*RUN   1        : silt_loam_13in_irr        MZCER048 UNLI2201    1
 MODEL          : MZCER048 - Maize
 EXPERIMENT     : UNLI2201 MZ IRRIGATED MAIZE PRODUCTION
 DATA PATH      :
 TREATMENT  1   : silt_loam_13in_irr        MZCER048
  
!               |------ Daily (g/ha) -----|--- Cumulative (kg/ha) ---|---- Cum CO2-equiv kg[CO2eq]/ha ---|
!                    CO2      N2O      CH4      CO2      N2O      CH4      CO2      N2O      CH4    Total
!                g[C]/ha  g[N]/ha  g[C]/ha kg[C]/ha kg[N]/ha kg[C]/ha    CO2eq    CO2eq    CO2eq    CO2eq
@YEAR DOY   DAS   CO2GED   N2OGED   CH4GED    CO2EC    N2OEC    CH4EC    CCEQC    NCEQC    MCEQC    TCEQC
 2022 121     1     1191     0.00     0.00        1     0.00     0.00        4        0        0        4
 2022 122     2     1153     0.00     0.00        2     0.00     0.00        9        0        0        9
 2022 123     3      791     0.00     0.00        3     0.00     0.00       12        0        0       12
 2022 124     4      466     0.00     0.00        4     0.00     0.00       13        0        0       13
 2022 125     5      270     0.00     0.00        4     0.00     0.00       14        0        0       14
 2022 126     6      260     0.00     0.00        4     0.00     0.00       15        0        0       15
 2022 127     7      518     0.01     0.00        5     0.00     0.00       17        0        0       17
 2022 128     8     1350     0.00     0.00        6     0.00     0.00       22        0        0       22
 2022 129     9     2239     0.01     0.00        8     0.00     0.00       30        0        0       30
 2022 130    10     2912     0.02     0.00       11     0.00     0.00       41        0        0       41
 2022 131    11     3290     0.02     0.00       14     0.00     0.00       53        0        0       53
 2022 132    12     3792     0.03     0.00       18     0.00     0.00       67        0        0       67
 2022 133    13     4038     0.04     0.00       22     0.00     0.00       82        0        0       82
 2022 134    14     3864     0.05     0.00       26     0.00     0.00       96        0        0       96
 2022 135    15     3790     0.05     0.00       30     0.00     0.00      110        0        0      110
 2022 136    16     3810     0.06     0.00       34     0.00     0.00      124        0        0      124
 2022 137    17     3537     0.07     0.00       37     0.00     0.00      137        0        0      137
 2022 138    18     3566     0.08     0.00       41     0.00     0.00      150        0        0      150
 2022 139    19     3884     0.09     0.00       45     0.00     0.00      164        0        0      164
 2022 140    20     4204     0.10     0.00       49     0.00     0.00      180        0        0      180
 2022 141    21     3766     0.11     0.00       53     0.00     0.00      193        0        0      194
 2022 142    22     3010     0.12     0.00       56     0.00     0.00      204        0        0      205
 2022 143    23     2057     0.12     0.00       58     0.00     0.00      212        0        0      212
 2022 144    24     1382     0.01     0.00       59     0.00     0.00      217        0        0      218
 2022 145    25      727     0.01     0.00       60     0.00     0.00      220        0        0      220
 2022 146    26     1011     0.02     0.00       61     0.00     0.00      223        0        0      224
 2022 147    27     1619     0.02     0.00       62     0.00     0.00      229        0        0      230
 2022 148    28     2477     0.02     0.00       65     0.00     0.00      238        0        0      239
 2022 149    29     3242     0.02     0.00       68     0.00     0.00      250        1        0      251
 2022 150    30     4030     0.02     0.00       72     0.00     0.00      265        1        0      266
 2022 151    31     4106     0.02     0.00       76     0.00     0.00      280        1        0      281
 2022 152    32     4029     0.07     0.00       80     0.00     0.00      295        1        0      296
 2022 153    33     3683     0.14     0.00       84     0.00     0.00      309        1        0      309
 2022 154    34     3269     0.20     0.00       87     0.00     0.00      321        1        0      321
 2022 155    35     2957     0.21     0.00       90     0.00     0.00      331        1        0      332
 2022 156    36     3345     0.22     0.00       94     0.00     0.00      344        1        0      345
 2022 157    37     3739     0.24     0.00       97     0.00     0.00      357        1        0      358
 2022 158    38     4206     0.25     0.00      102     0.00     0.00      373        1        0      374
 2022 159    39     4476     0.10     0.00      106     0.00     0.00      389        1        0      390
 2022 160    40     4574     0.26     0.00      111     0.00     0.00      406        1        0      407
 2022 161    41     4570     0.34     0.00      115     0.00     0.00      423        1        0      424
 2022 162    42     4601     0.34     0.00      120     0.00     0.00      440        2        0      441
 2022 163    43     4886     0.34     0.00      125     0.00     0.00      458        2        0      459
 2022 164    44     5449     0.35     0.00      130     0.00     0.00      478        2        0      480
 2022 165    45     6205     0.37     0.00      136     0.00     0.00      500        2        0      503
 2022 166    46     6305     0.38     0.00      143     0.00     0.00      524        2        0      526
 2022 167    47     6269     0.39     0.00      149     0.01     0.00      547        2        0      549
 2022 168    48     5908     0.40     0.00      155     0.01     0.00      568        3        0      571
 2022 169    49     5965     0.41     0.00      161     0.01     0.00      590        3        0      593
 2022 170    50     5819     0.41     0.00      167     0.01     0.00      611        3        0      615
 2022 171    51     6100     0.42     0.00      173     0.01     0.00      634        3        0      637
 2022 172    52     6398     0.43     0.00      179     0.01     0.00      657        3        0      661
 2022 173    53     6214     0.44     0.00      185     0.01     0.00      680        4        0      684
 2022 174    54     5644     0.44     0.00      191     0.01     0.00      701        4        0      705
 2022 175    55     5328     0.45     0.00      196     0.01     0.00      720        4        0      724
 2022 176    56     5018     0.44     0.00      201     0.01     0.00      739        4        0      743
 2022 177    57     4492     0.44     0.00      206     0.01     0.00      755        5        0      760
 2022 178    58     4275     0.45     0.00      210     0.01     0.00      771        5        0      776
 2022 179    59     4281     0.44     0.00      214     0.01     0.00      787        5        0      792
 2022 180    60     4076     0.44     0.00      218     0.01     0.00      802        5        0      807
 2022 181    61     4175     0.44     0.00      223     0.01     0.00      817        5        0      822
 2022 182    62     4463     0.44     0.00      227     0.01     0.00      833        6        0      839
 2022 183    63     4789     0.44     0.00      232     0.01     0.00      851        6        0      857
 2022 184    64     5858     0.06     0.00      238     0.01     0.00      872        6        0      878
 2022 185    65     6286     0.10     0.00      244     0.01     0.00      895        6        0      901
 2022 186    66     6382     0.39     0.00      250     0.01     0.00      919        6        0      925
 2022 187    67     6730     0.11     0.00      257     0.01     0.00      944        6        0      950
 2022 188    68     6868     0.23     0.00      264     0.01     0.00      969        6        0      975
 2022 189    69     7059     0.10     0.00      271     0.01     0.00      995        6        0     1001
 2022 190    70     7271     0.38     0.00      278     0.01     0.00     1021        6        0     1028
 2022 191    71     7281     0.71     0.00      286     0.01     0.00     1048        7        0     1055
 2022 192    72     7236     0.71     0.00      293     0.02     0.00     1075        7        0     1082
 2022 193    73     6997     0.68     0.00      300     0.02     0.00     1100        7        0     1108
 2022 194    74     6746     0.66     0.00      307     0.02     0.00     1125        8        0     1133
 2022 195    75     6669     0.64     0.00      313     0.02     0.00     1150        8        0     1158
 2022 196    76     6531     0.63     0.00      320     0.02     0.00     1174        8        0     1182
 2022 197    77     6084     0.63     0.00      326     0.02     0.00     1196        9        0     1204
 2022 198    78     6247     0.62     0.00      332     0.02     0.00     1219        9        0     1228
 2022 199    79     6258     0.61     0.00      338     0.02     0.00     1242        9        0     1251
 2022 200    80     6103     0.61     0.00      344     0.02     0.00     1264        9        0     1274
 2022 201    81     5614     0.60     0.00      350     0.02     0.00     1285       10        0     1294
 2022 202    82     5333     0.60     0.00      355     0.02     0.00     1304       10        0     1314
 2022 203    83     5886     0.16     0.00      361     0.02     0.00     1326       10        0     1336
 2022 204    84     6026     0.50     0.00      367     0.02     0.00     1348       10        0     1358
 2022 205    85     5818     0.67     0.00      373     0.02     0.00     1369       11        0     1380
 2022 206    86     5540     0.65     0.00      379     0.02     0.00     1390       11        0     1401
 2022 207    87     5454     0.45     0.00      384     0.02     0.00     1410       11        0     1421
 2022 208    88     5183     0.65     0.00      389     0.02     0.00     1429       11        0     1440
 2022 209    89     5456     0.10     0.00      395     0.02     0.00     1449       11        0     1460
 2022 210    90     5142     0.32     0.00      400     0.02     0.00     1468       12        0     1479
 2022 211    91     5192     0.58     0.00      405     0.03     0.00     1487       12        0     1499
 2022 212    92     5225     0.73     0.00      410     0.03     0.00     1506       12        0     1518
 2022 213    93     5310     0.68     0.00      416     0.03     0.00     1525       13        0     1538
 2022 214    94     5460     0.65     0.00      421     0.03     0.00     1545       13        0     1558
 2022 215    95     5905     0.62     0.00      427     0.03     0.00     1567       13        0     1580
 2022 216    96     5971     0.61     0.00      433     0.03     0.00     1589       13        0     1602
 2022 217    97     5961     0.60     0.00      439     0.03     0.00     1611       14        0     1625
 2022 218    98     5969     0.59     0.00      445     0.03     0.00     1633       14        0     1647
 2022 219    99     5821     0.59     0.00      451     0.03     0.00     1654       14        0     1668
 2022 220   100     5313     0.57     0.00      456     0.03     0.00     1674       15        0     1688
 2022 221   101     4904     0.56     0.00      461     0.03     0.00     1692       15        0     1706
 2022 222   102     4783     0.56     0.00      466     0.03     0.00     1709       15        0     1724
 2022 223   103     4490     0.55     0.00      470     0.03     0.00     1726       15        0     1741
 2022 224   104     4379     0.54     0.00      475     0.03     0.00     1742       16        0     1757
 2022 225   105     4665     0.54     0.00      479     0.03     0.00     1759       16        0     1775
 2022 226   106     4812     0.53     0.00      484     0.03     0.00     1777       16        0     1793
 2022 227   107     4812     0.52     0.00      489     0.03     0.00     1794       16        0     1811
 2022 228   108     5377     0.29     0.00      494     0.04     0.00     1814       16        0     1830
 2022 229   109     5182     0.41     0.00      499     0.04     0.00     1833       17        0     1850
 2022 230   110     4807     0.54     0.00      504     0.04     0.00     1851       17        0     1867
 2022 231   111     4589     0.52     0.00      509     0.04     0.00     1867       17        0     1885
 2022 232   112     4250     0.51     0.00      513     0.04     0.00     1883       17        0     1900
 2022 233   113     3930     0.50     0.00      517     0.04     0.00     1897       18        0     1915
 2022 234   114     4007     0.50     0.00      521     0.04     0.00     1912       18        0     1930
 2022 235   115     4004     0.49     0.00      525     0.04     0.00     1927       18        0     1945
 2022 236   116     3946     0.48     0.00      529     0.04     0.00     1941       18        0     1960
 2022 237   117     4011     0.47     0.00      533     0.04     0.00     1956       19        0     1975
 2022 238   118     4258     0.47     0.00      537     0.04     0.00     1972       19        0     1990
 2022 239   119     4366     0.46     0.00      542     0.04     0.00     1988       19        0     2007
 2022 240   120     4456     0.45     0.00      546     0.04     0.00     2004       19        0     2023
 2022 241   121     4506     0.45     0.00      551     0.04     0.00     2021       19        0     2040
 2022 242   122     4397     0.44     0.00      555     0.04     0.00     2037       20        0     2056
 2022 243   123     4179     0.44     0.00      559     0.04     0.00     2052       20        0     2072
 2022 244   124     4245     0.41     0.00      563     0.04     0.00     2068       20        0     2088
 2022 245   125     4069     0.41     0.00      567     0.04     0.00     2083       20        0     2103
 2022 246   126     3992     0.42     0.00      571     0.04     0.00     2097       20        0     2118
 2022 247   127     3886     0.41     0.00      575     0.04     0.00     2112       21        0     2132
 2022 248   128     3798     0.41     0.00      579     0.04     0.00     2125       21        0     2146
 2022 249   129     3687     0.41     0.00      583     0.04     0.00     2139       21        0     2160
 2022 250   130     3745     0.40     0.00      587     0.05     0.00     2153       21        0     2174
 2022 251   131     3645     0.40     0.00      590     0.05     0.00     2166       21        0     2187
 2022 252   132     3877     0.40     0.00      594     0.05     0.00     2180       22        0     2202
 2022 253   133     3763     0.39     0.00      598     0.05     0.00     2194       22        0     2216
 2022 254   134     3871     0.35     0.00      602     0.05     0.00     2208       22        0     2230
 2022 255   135     3412     0.36     0.00      605     0.05     0.00     2221       22        0     2243
 2022 256   136     3182     0.37     0.00      608     0.05     0.00     2233       22        0     2255
 2022 257   137     2848     0.37     0.00      611     0.05     0.00     2243       22        0     2265
 2022 258   138     3150     0.38     0.00      614     0.05     0.00     2255       23        0     2277
 2022 259   139     3497     0.37     0.00      618     0.05     0.00     2267       23        0     2290
 2022 260   140     4313     0.10     0.00      622     0.05     0.00     2283       23        0     2306
 2022 261   141     4683     0.30     0.00      627     0.05     0.00     2300       23        0     2323
 2022 262   142     4689     0.44     0.00      632     0.05     0.00     2318       23        0     2341
 2022 263   143     4542     0.43     0.00      636     0.05     0.00     2334       23        0     2358
