*SOIL ORGANIC N BALANCE

*DSSAT Cropping System Model Ver. 4.8.2.000 -release  NOV 03, 2024 05:23:59

*RUN   1        : silt_loam_13in_irr        MZCER048 UNLI2201    1
 MODEL          : MZCER048 - Maize
 EXPERIMENT     : UNLI2201 MZ IRRIGATED MAIZE PRODUCTION
 DATA PATH      :
 TREATMENT  1   : silt_loam_13in_irr        MZCER048
  
!                 ----- STATE VARS ------   ---- ADDED TODAY ---- REMOVED     DAILY     CUMUL
@YEAR DOY   DAS      HUMN     FON    RESN   ARESN   ASENN AIMMOBN RMINERP      DBAL      CBAL
 2022 120     0  14871.79   0.000   0.000   0.000   0.000   0.000   0.000     0.000     0.000
 2022 121     1  14871.67   0.000   0.000   0.000   0.000   0.000   0.119    -0.000    -0.000
 2022 122     2  14871.56   0.000   0.000   0.000   0.000   0.000   0.115     0.000     0.000
 2022 123     3  14871.48   0.000   0.000   0.000   0.000   0.000   0.079     0.001     0.001
 2022 124     4  14871.43   0.000   0.000   0.000   0.000   0.000   0.047    -0.000     0.001
 2022 125     5  14871.40   0.000   0.000   0.000   0.000   0.000   0.027    -0.000     0.000
 2022 126     6  14871.38   0.000   0.000   0.000   0.000   0.000   0.026    -0.000     0.000
 2022 127     7  14871.33   0.000   0.000   0.000   0.000   0.000   0.052     0.000     0.000
 2022 128     8  14871.19   0.000   0.000   0.000   0.000   0.000   0.135     0.000     0.000
 2022 129     9  14870.97   0.000   0.000   0.000   0.000   0.000   0.224    -0.001    -0.000
 2022 130    10  14870.67   0.000   0.000   0.000   0.000   0.000   0.291     0.000    -0.000
 2022 131    11  14870.35   0.000   0.000   0.000   0.000   0.000   0.329     0.002     0.002
 2022 132    12  14869.97   0.000   0.000   0.000   0.000   0.000   0.379    -0.001     0.001
 2022 133    13  14869.56   0.000   0.000   0.000   0.000   0.000   0.404    -0.000     0.000
 2022 134    14  14869.18   0.000   0.000   0.000   0.000   0.000   0.386    -0.000     0.000
 2022 135    15  14868.80   0.000   0.000   0.000   0.000   0.000   0.379     0.001     0.001
 2022 136    16  14868.42   0.000   0.000   0.000   0.000   0.000   0.381    -0.001     0.000
 2022 137    17  14868.06   0.000   0.000   0.000   0.000   0.000   0.354     0.000     0.000
 2022 138    18  14867.71   0.000   0.000   0.000   0.000   0.000   0.357     0.000     0.001
 2022 139    19  14867.32   0.000   0.000   0.000   0.000   0.000   0.388    -0.000     0.000
 2022 140    20  14866.90   0.000   0.000   0.000   0.000   0.000   0.420     0.000     0.001
 2022 141    21  14866.52   0.000   0.000   0.000   0.000   0.000   0.377    -0.000     0.000
 2022 142    22  14866.22   0.000   0.000   0.000   0.000   0.000   0.301    -0.001    -0.000
 2022 143    23  14866.01   0.000   0.000   0.000   0.000   0.000   0.206     0.001     0.000
 2022 144    24  14865.88   0.000   0.000   0.000   0.000   0.000   0.138    -0.000    -0.000
 2022 145    25  14865.80   0.000   0.000   0.000   0.000   0.000   0.073     0.000     0.000
 2022 146    26  14865.70   0.000   0.000   0.000   0.000   0.000   0.101     0.001     0.001
 2022 147    27  14865.54   0.000   0.000   0.000   0.000   0.000   0.162    -0.000     0.001
 2022 148    28  14865.29   0.000   0.000   0.000   0.000   0.000   0.248    -0.000     0.000
 2022 149    29  14864.97   0.000   0.000   0.000   0.000   0.000   0.324     0.000     0.000
 2022 150    30  14864.57   0.000   0.000   0.000   0.000   0.000   0.403    -0.000     0.000
 2022 151    31  14864.16   0.000   0.000   0.000   0.000   0.000   0.411     0.000     0.000
 2022 152    32  14863.75   0.002   0.000   0.000   0.002   0.000   0.403     0.001     0.002
 2022 153    33  14863.38   0.004   0.000   0.000   0.002   0.000   0.368     0.000     0.002
 2022 154    34  14863.06   0.006   0.000   0.000   0.002   0.000   0.327    -0.001     0.001
 2022 155    35  14862.76   0.008   0.000   0.000   0.002   0.000   0.296     0.001     0.002
 2022 156    36  14862.43   0.010   0.000   0.000   0.002   0.000   0.334     0.000     0.002
 2022 157    37  14862.05   0.013   0.000   0.000   0.003   0.000   0.374     0.000     0.003
 2022 158    38  14861.63   0.016   0.000   0.000   0.003   0.000   0.421    -0.000     0.002
 2022 159    39  14861.18   0.020   0.000   0.000   0.004   0.000   0.448    -0.001     0.001
 2022 160    40  14860.73   0.023   0.000   0.000   0.004   0.000   0.457     0.002     0.003
 2022 161    41  14860.27   0.028   0.000   0.000   0.004   0.000   0.457     0.001     0.004
 2022 162    42  14859.81   0.032   0.000   0.000   0.005   0.000   0.460    -0.001     0.003
 2022 163    43  14859.32   0.037   0.000   0.000   0.005   0.000   0.489     0.001     0.004
 2022 164    44  14858.78   0.043   0.000   0.000   0.005   0.000   0.545     0.003     0.006
 2022 165    45  14858.16   0.049   0.000   0.000   0.006   0.000   0.621    -0.001     0.005
 2022 166    46  14857.53   0.055   0.000   0.000   0.006   0.000   0.631     0.001     0.006
 2022 167    47  14856.90   0.062   0.000   0.000   0.007   0.000   0.627     0.002     0.008
 2022 168    48  14856.31   0.070   0.000   0.000   0.008   0.000   0.591    -0.001     0.007
 2022 169    49  14855.71   0.078   0.000   0.000   0.008   0.000   0.597     0.001     0.008
 2022 170    50  14855.13   0.087   0.000   0.000   0.009   0.000   0.582     0.001     0.009
 2022 171    51  14854.52   0.097   0.000   0.000   0.009   0.000   0.605    -0.000     0.009
 2022 172    52  14853.89   0.108   0.000   0.000   0.010   0.000   0.635     0.001     0.010
 2022 173    53  14853.27   0.119   0.000   0.000   0.010   0.000   0.617     0.001     0.011
 2022 174    54  14852.71   0.131   0.000   0.000   0.011   0.000   0.557    -0.001     0.010
 2022 175    55  14852.18   0.144   0.000   0.000   0.011   0.000   0.526     0.001     0.011
 2022 176    56  14851.69   0.157   0.000   0.000   0.012   0.000   0.496     0.003     0.014
 2022 177    57  14851.24   0.171   0.000   0.000   0.012   0.000   0.439    -0.003     0.011
 2022 178    58  14850.83   0.186   0.000   0.000   0.013   0.000   0.417     0.002     0.013
 2022 179    59  14850.41   0.201   0.000   0.000   0.013   0.000   0.418     0.000     0.013
 2022 180    60  14850.01   0.217   0.000   0.000   0.014   0.000   0.398     0.001     0.014
 2022 181    61  14849.60   0.233   0.000   0.000   0.014   0.000   0.408    -0.000     0.014
 2022 182    62  14849.16   0.249   0.000   0.000   0.015   0.000   0.436     0.001     0.015
 2022 183    63  14848.69   0.266   0.000   0.000   0.015   0.000   0.468     0.000     0.015
 2022 184    64  14848.13   0.290   0.000   0.000   0.015   0.000   0.547     0.000     0.015
 2022 185    65  14847.54   0.315   0.000   0.000   0.016   0.000   0.579     0.002     0.017
 2022 186    66  14846.95   0.341   0.000   0.000   0.017   0.000   0.586    -0.001     0.017
 2022 187    67  14846.33   0.370   0.000   0.000   0.017   0.000   0.605     0.001     0.017
 2022 188    68  14845.71   0.398   0.000   0.000   0.018   0.000   0.617     0.001     0.019
 2022 189    69  14845.06   0.427   0.000   0.000   0.018   0.000   0.636    -0.000     0.018
 2022 190    70  14844.40   0.456   0.000   0.000   0.019   0.000   0.647     0.002     0.020
 2022 191    71  14843.74   0.484   0.000   0.000   0.019   0.000   0.647    -0.002     0.018
 2022 192    72  14843.09   0.511   0.000   0.000   0.020   0.000   0.650     0.002     0.020
 2022 193    73  14842.45   0.538   0.000   0.000   0.020   0.000   0.633    -0.000     0.020
 2022 194    74  14841.83   0.563   0.000   0.000   0.021   0.000   0.613     0.002     0.021
 2022 195    75  14841.22   0.589   0.000   0.000   0.021   0.000   0.608     0.001     0.022
 2022 196    76  14840.62   0.614   0.000   0.000   0.021   0.000   0.599    -0.001     0.021
 2022 197    77  14840.05   0.640   0.000   0.000   0.022   0.000   0.559    -0.000     0.021
 2022 198    78  14839.47   0.665   0.000   0.000   0.022   0.000   0.576     0.000     0.022
 2022 199    79  14838.89   0.691   0.000   0.000   0.023   0.000   0.579     0.001     0.023
 2022 200    80  14838.32   0.717   0.000   0.000   0.023   0.000   0.568    -0.000     0.022
 2022 201    81  14837.79   0.743   0.000   0.000   0.023   0.000   0.525     0.001     0.023
 2022 202    82  14837.29   0.769   0.000   0.000   0.024   0.000   0.501     0.001     0.024
 2022 203    83  14836.75   0.796   0.000   0.000   0.024   0.000   0.540     0.000     0.024
 2022 204    84  14836.19   0.824   0.000   0.000   0.024   0.000   0.551     0.000     0.025
 2022 205    85  14835.65   0.851   0.000   0.000   0.025   0.000   0.535    -0.001     0.024
 2022 206    86  14835.14   0.878   0.000   0.000   0.025   0.000   0.513     0.001     0.025
 2022 207    87  14834.63   0.906   0.000   0.000   0.025   0.000   0.500    -0.000     0.025
 2022 208    88  14834.16   0.933   0.000   0.000   0.026   0.000   0.476     0.000     0.025
 2022 209    89  14833.67   0.962   0.000   0.000   0.026   0.000   0.482     0.001     0.027
 2022 210    90  14833.22   0.991   0.000   0.000   0.026   0.000   0.451    -0.001     0.026
 2022 211    91  14832.77   1.021   0.000   0.000   0.027   0.000   0.448     0.001     0.026
 2022 212    92  14832.31   1.050   0.000   0.000   0.027   0.000   0.454     0.002     0.028
 2022 213    93  14831.84   1.079   0.000   0.000   0.027   0.000   0.465    -0.001     0.027
 2022 214    94  14831.36   1.109   0.000   0.000   0.027   0.000   0.482     0.000     0.027
 2022 215    95  14830.84   1.138   0.000   0.000   0.028   0.000   0.523     0.000     0.028
 2022 216    96  14830.30   1.167   0.000   0.000   0.028   0.000   0.532    -0.001     0.027
 2022 217    97  14829.77   1.197   0.000   0.000   0.028   0.000   0.534     0.001     0.028
 2022 218    98  14829.23   1.226   0.000   0.000   0.029   0.000   0.538     0.002     0.030
 2022 219    99  14828.70   1.257   0.000   0.000   0.029   0.000   0.524    -0.001     0.029
 2022 220   100  14828.22   1.288   0.000   0.000   0.029   0.000   0.478     0.001     0.029
 2022 221   101  14827.78   1.319   0.000   0.000   0.030   0.000   0.443     0.001     0.030
 2022 222   102  14827.34   1.350   0.000   0.000   0.030   0.000   0.435    -0.001     0.030
 2022 223   103  14826.93   1.382   0.000   0.000   0.030   0.000   0.410     0.000     0.030
 2022 224   104  14826.53   1.415   0.000   0.000   0.031   0.000   0.402     0.001     0.031
 2022 225   105  14826.10   1.448   0.000   0.000   0.031   0.000   0.429     0.001     0.032
 2022 226   106  14825.65   1.481   0.000   0.000   0.031   0.000   0.444    -0.001     0.030
 2022 227   107  14825.21   1.516   0.000   0.000   0.032   0.000   0.440     0.001     0.031
 2022 228   108  14824.73   1.550   0.000   0.000   0.032   0.000   0.475    -0.000     0.031
 2022 229   109  14824.27   1.584   0.000   0.000   0.033   0.000   0.457     0.001     0.032
 2022 230   110  14823.85   1.619   0.000   0.000   0.033   0.000   0.425     0.002     0.034
 2022 231   111  14823.44   1.653   0.000   0.000   0.034   0.000   0.409    -0.000     0.034
 2022 232   112  14823.06   1.688   0.000   0.000   0.034   0.000   0.381    -0.000     0.033
 2022 233   113  14822.70   1.724   0.000   0.000   0.035   0.000   0.354     0.001     0.034
 2022 234   114  14822.34   1.760   0.000   0.000   0.035   0.000   0.362     0.000     0.035
 2022 235   115  14821.98   1.796   0.000   0.000   0.035   0.000   0.362     0.001     0.036
 2022 236   116  14821.62   1.833   0.000   0.000   0.036   0.000   0.358    -0.001     0.034
 2022 237   117  14821.25   1.871   0.000   0.000   0.036   0.000   0.365     0.001     0.035
 2022 238   118  14820.86   1.908   0.000   0.000   0.036   0.000   0.388     0.001     0.036
 2022 239   119  14820.46   1.947   0.000   0.000   0.037   0.000   0.398    -0.000     0.036
 2022 240   120  14820.05   1.985   0.000   0.000   0.037   0.000   0.407     0.002     0.037
 2022 241   121  14819.64   2.024   0.000   0.000   0.038   0.000   0.412    -0.000     0.037
 2022 242   122  14819.24   2.064   0.000   0.000   0.038   0.000   0.403    -0.000     0.037
 2022 243   123  14818.85   2.103   0.000   0.000   0.038   0.000   0.384     0.001     0.038
 2022 244   124  14818.46   2.143   0.000   0.000   0.039   0.000   0.387     0.000     0.038
 2022 245   125  14818.09   2.183   0.000   0.000   0.039   0.000   0.372     0.001     0.039
 2022 246   126  14817.72   2.224   0.000   0.000   0.040   0.000   0.366    -0.001     0.038
 2022 247   127  14817.37   2.264   0.000   0.000   0.040   0.000   0.357     0.002     0.040
 2022 248   128  14817.02   2.306   0.000   0.000   0.040   0.000   0.345     0.001     0.041
 2022 249   129  14816.68   2.348   0.000   0.000   0.041   0.000   0.336    -0.000     0.041
 2022 250   130  14816.34   2.391   0.000   0.000   0.041   0.000   0.342    -0.000     0.041
 2022 251   131  14816.00   2.433   0.000   0.000   0.041   0.000   0.334     0.002     0.042
 2022 252   132  14815.65   2.476   0.000   0.000   0.042   0.000   0.355    -0.002     0.041
 2022 253   133  14815.30   2.519   0.000   0.000   0.042   0.000   0.345     0.001     0.042
 2022 254   134  14814.96   2.562   0.000   0.000   0.042   0.000   0.344     0.000     0.042
 2022 255   135  14814.65   2.605   0.000   0.000   0.043   0.000   0.306     0.001     0.043
 2022 256   136  14814.36   2.648   0.000   0.000   0.043   0.000   0.287    -0.000     0.043
 2022 257   137  14814.11   2.692   0.000   0.000   0.043   0.000   0.258     0.000     0.043
 2022 258   138  14813.82   2.735   0.000   0.000   0.044   0.000   0.286     0.000     0.043
 2022 259   139  14813.50   2.779   0.000   0.000   0.044   0.000   0.316     0.001     0.044
 2022 260   140  14813.14   2.822   0.000   0.000   0.044   0.000   0.367     0.001     0.045
 2022 261   141  14812.75   2.820   0.000   0.000   0.000   0.000   0.391    -0.046    -0.001
 2022 262   142  14812.36   2.817   0.000   0.000   0.000   0.000   0.395     0.000    -0.001
 2022 263   143  14811.97   2.813   0.000   0.000   0.000   0.000   0.388    -0.001    -0.001


!                                        INITIAL Year/Doy      FINAL Year/Doy
!                                                2022/121            2022/263
!SOIL N BALANCE                                 -----------kg N/ha-----------

!   Soil Humus N                                 14871.79            14811.97
!   Soil Litter N                                    0.00                2.81
!   N in Surface Residue                             0.00                0.00

!   Added to / Removed from Soil:
!   N in Harvest Residues from Previous Crop         0.00
!   N from Organic Applications                      0.00
!   N from senesced plant matter                     2.60
!   N immobilized                                    0.00
!   N mineralized                                                       59.60

!   Total N balance                              14874.39            14874.38
!   Balance                                                            -0.002
