*SOIL ORGANIC N BALANCE

*DSSAT Cropping System Model Ver. 4.8.2.000 -release  FEB 28, 2025 20:34:02

*RUN   1        : silt_loam_13in_irr        MZCER048 UNLI2201    1
 MODEL          : MZCER048 - Maize
 EXPERIMENT     : UNLI2201 MZ IRRIGATED MAIZE PRODUCTION
 DATA PATH      :
 TREATMENT  1   : silt_loam_13in_irr        MZCER048
  
!                 ----- STATE VARS ------   ---- ADDED TODAY ---- REMOVED     DAILY     CUMUL
@YEAR DOY   DAS      HUMN     FON    RESN   ARESN   ASENN AIMMOBN RMINERP      DBAL      CBAL
 2022 120     0  14871.79   0.000   0.000   0.000   0.000   0.000   0.000     0.000     0.000
 2022 121     1  14871.67   0.000   0.000   0.000   0.000   0.000   0.119    -0.000    -0.000
 2022 122     2  14871.56   0.000   0.000   0.000   0.000   0.000   0.115     0.000     0.000
 2022 123     3  14871.48   0.000   0.000   0.000   0.000   0.000   0.079     0.001     0.001
 2022 124     4  14871.43   0.000   0.000   0.000   0.000   0.000   0.047    -0.000     0.001
 2022 125     5  14871.40   0.000   0.000   0.000   0.000   0.000   0.027    -0.000     0.000
 2022 126     6  14871.38   0.000   0.000   0.000   0.000   0.000   0.026    -0.000     0.000
 2022 127     7  14871.33   0.000   0.000   0.000   0.000   0.000   0.052     0.000     0.000
 2022 128     8  14871.19   0.000   0.000   0.000   0.000   0.000   0.135     0.000     0.000
 2022 129     9  14870.97   0.000   0.000   0.000   0.000   0.000   0.224    -0.001    -0.000
 2022 130    10  14870.67   0.000   0.000   0.000   0.000   0.000   0.291     0.000    -0.000
 2022 131    11  14870.35   0.000   0.000   0.000   0.000   0.000   0.329     0.002     0.002
 2022 132    12  14869.97   0.000   0.000   0.000   0.000   0.000   0.379    -0.001     0.001
 2022 133    13  14869.56   0.000   0.000   0.000   0.000   0.000   0.404    -0.000     0.000
 2022 134    14  14869.18   0.000   0.000   0.000   0.000   0.000   0.386    -0.000     0.000
 2022 135    15  14868.80   0.000   0.000   0.000   0.000   0.000   0.379     0.001     0.001
 2022 136    16  14868.42   0.000   0.000   0.000   0.000   0.000   0.381    -0.001     0.000
 2022 137    17  14868.06   0.000   0.000   0.000   0.000   0.000   0.354     0.000     0.000
 2022 138    18  14867.71   0.000   0.000   0.000   0.000   0.000   0.357     0.000     0.001
 2022 139    19  14867.32   0.000   0.000   0.000   0.000   0.000   0.388    -0.000     0.000
 2022 140    20  14866.90   0.000   0.000   0.000   0.000   0.000   0.420     0.000     0.001
 2022 141    21  14866.52   0.000   0.000   0.000   0.000   0.000   0.377    -0.000     0.000
 2022 142    22  14866.22   0.000   0.000   0.000   0.000   0.000   0.301    -0.001    -0.000
 2022 143    23  14866.01   0.000   0.000   0.000   0.000   0.000   0.206     0.001     0.000
 2022 144    24  14865.88   0.000   0.000   0.000   0.000   0.000   0.138    -0.000    -0.000
 2022 145    25  14865.81   0.000   0.000   0.000   0.000   0.000   0.071     0.001     0.001
 2022 146    26  14865.71   0.000   0.000   0.000   0.000   0.000   0.099    -0.002    -0.001
 2022 147    27  14865.55   0.000   0.000   0.000   0.000   0.000   0.158     0.000    -0.000
 2022 148    28  14865.30   0.000   0.000   0.000   0.000   0.000   0.243     0.000     0.000
 2022 149    29  14864.99   0.000   0.000   0.000   0.000   0.000   0.319     0.000     0.000
 2022 150    30  14864.59   0.000   0.000   0.000   0.000   0.000   0.397    -0.000    -0.000
 2022 151    31  14864.18   0.000   0.000   0.000   0.000   0.000   0.406     0.000     0.000
 2022 152    32  14863.78   0.002   0.000   0.000   0.002   0.000   0.399     0.002     0.002
 2022 153    33  14863.42   0.004   0.000   0.000   0.002   0.000   0.362     0.002     0.004
 2022 154    34  14863.10   0.007   0.000   0.000   0.003   0.000   0.321    -0.001     0.002
 2022 155    35  14862.81   0.010   0.000   0.000   0.003   0.000   0.289     0.001     0.003
 2022 156    36  14862.49   0.014   0.000   0.000   0.004   0.000   0.328     0.002     0.005
 2022 157    37  14862.12   0.019   0.000   0.000   0.005   0.000   0.368     0.000     0.006
 2022 158    38  14861.70   0.025   0.000   0.000   0.006   0.000   0.418     0.000     0.006
 2022 159    39  14861.25   0.031   0.000   0.000   0.006   0.000   0.446     0.001     0.006
 2022 160    40  14860.80   0.038   0.000   0.000   0.007   0.000   0.456     0.001     0.007
 2022 161    41  14860.34   0.045   0.000   0.000   0.007   0.000   0.455    -0.001     0.007
 2022 162    42  14859.88   0.053   0.000   0.000   0.008   0.000   0.458     0.001     0.008
 2022 163    43  14859.40   0.061   0.000   0.000   0.008   0.000   0.484     0.002     0.009
 2022 164    44  14858.86   0.070   0.000   0.000   0.009   0.000   0.539    -0.001     0.008
 2022 165    45  14858.25   0.079   0.000   0.000   0.009   0.000   0.613     0.000     0.008
 2022 166    46  14857.62   0.089   0.000   0.000   0.010   0.000   0.622     0.001     0.010
 2022 167    47  14857.01   0.100   0.000   0.000   0.011   0.000   0.615    -0.000     0.010
 2022 168    48  14856.43   0.111   0.000   0.000   0.011   0.000   0.577     0.001     0.010
 2022 169    49  14855.86   0.123   0.000   0.000   0.012   0.000   0.578     0.002     0.013
 2022 170    50  14855.29   0.136   0.000   0.000   0.013   0.000   0.560    -0.001     0.012
 2022 171    51  14854.71   0.150   0.000   0.000   0.013   0.000   0.580     0.000     0.012
 2022 172    52  14854.10   0.164   0.000   0.000   0.014   0.000   0.608     0.001     0.013
 2022 173    53  14853.51   0.180   0.000   0.000   0.014   0.000   0.589     0.000     0.013
 2022 174    54  14852.98   0.196   0.000   0.000   0.015   0.000   0.531     0.001     0.014
 2022 175    55  14852.48   0.213   0.000   0.000   0.015   0.000   0.498     0.001     0.015
 2022 176    56  14852.01   0.231   0.000   0.000   0.016   0.000   0.466     0.001     0.016
 2022 177    57  14851.60   0.249   0.000   0.000   0.016   0.000   0.412    -0.000     0.016
 2022 178    58  14851.21   0.267   0.000   0.000   0.017   0.000   0.390     0.002     0.018
 2022 179    59  14850.82   0.286   0.000   0.000   0.017   0.000   0.389    -0.001     0.017
 2022 180    60  14850.45   0.305   0.000   0.000   0.018   0.000   0.369     0.002     0.018
 2022 181    61  14850.07   0.325   0.000   0.000   0.018   0.000   0.377    -0.001     0.018
 2022 182    62  14849.67   0.346   0.000   0.000   0.019   0.000   0.402     0.001     0.019
 2022 183    63  14849.23   0.367   0.000   0.000   0.019   0.000   0.429    -0.001     0.018
 2022 184    64  14848.72   0.396   0.000   0.000   0.019   0.000   0.505     0.001     0.020
 2022 185    65  14848.17   0.428   0.000   0.000   0.020   0.000   0.538     0.002     0.022
 2022 186    66  14847.61   0.460   0.000   0.000   0.021   0.000   0.545    -0.002     0.020
 2022 187    67  14847.03   0.495   0.000   0.000   0.021   0.000   0.567     0.001     0.021
 2022 188    68  14846.44   0.529   0.000   0.000   0.022   0.000   0.579    -0.000     0.021
 2022 189    69  14845.83   0.563   0.000   0.000   0.023   0.000   0.597     0.002     0.023
 2022 190    70  14845.21   0.598   0.000   0.000   0.023   0.000   0.607     0.000     0.023
 2022 191    71  14844.60   0.632   0.000   0.000   0.024   0.000   0.607    -0.000     0.022
 2022 192    72  14843.98   0.665   0.000   0.000   0.024   0.000   0.608     0.001     0.023
 2022 193    73  14843.38   0.696   0.000   0.000   0.024   0.000   0.591     0.001     0.024
 2022 194    74  14842.81   0.728   0.000   0.000   0.025   0.000   0.567     0.001     0.025
 2022 195    75  14842.24   0.758   0.000   0.000   0.025   0.000   0.561    -0.000     0.025
 2022 196    76  14841.69   0.789   0.000   0.000   0.026   0.000   0.549     0.001     0.026
 2022 197    77  14841.17   0.820   0.000   0.000   0.026   0.000   0.512     0.002     0.028
 2022 198    78  14840.64   0.851   0.000   0.000   0.027   0.000   0.525    -0.001     0.026
 2022 199    79  14840.11   0.882   0.000   0.000   0.027   0.000   0.526     0.001     0.028
 2022 200    80  14839.59   0.913   0.000   0.000   0.027   0.000   0.513    -0.001     0.027
 2022 201    81  14839.12   0.944   0.000   0.000   0.028   0.000   0.472     0.001     0.028
 2022 202    82  14838.67   0.975   0.000   0.000   0.028   0.000   0.448     0.001     0.029
 2022 203    83  14838.18   1.008   0.000   0.000   0.029   0.000   0.487    -0.002     0.027
 2022 204    84  14837.68   1.042   0.000   0.000   0.029   0.000   0.496     0.001     0.029
 2022 205    85  14837.19   1.074   0.000   0.000   0.029   0.000   0.481    -0.000     0.029
 2022 206    86  14836.73   1.107   0.000   0.000   0.030   0.000   0.456    -0.000     0.028
 2022 207    87  14836.28   1.141   0.000   0.000   0.030   0.000   0.449     0.001     0.030
 2022 208    88  14835.85   1.174   0.000   0.000   0.030   0.000   0.426     0.000     0.030
 2022 209    89  14835.41   1.209   0.000   0.000   0.031   0.000   0.440     0.000     0.030
 2022 210    90  14834.99   1.244   0.000   0.000   0.031   0.000   0.413     0.000     0.030
 2022 211    91  14834.58   1.279   0.000   0.000   0.031   0.000   0.408     0.001     0.032
 2022 212    92  14834.17   1.314   0.000   0.000   0.032   0.000   0.412     0.000     0.032
 2022 213    93  14833.74   1.348   0.000   0.000   0.032   0.000   0.420     0.000     0.032
 2022 214    94  14833.30   1.383   0.000   0.000   0.032   0.000   0.434    -0.001     0.031
 2022 215    95  14832.83   1.418   0.000   0.000   0.032   0.000   0.468     0.000     0.031
 2022 216    96  14832.36   1.453   0.000   0.000   0.033   0.000   0.474     0.000     0.032
 2022 217    97  14831.88   1.489   0.000   0.000   0.033   0.000   0.474     0.001     0.033
 2022 218    98  14831.40   1.524   0.000   0.000   0.033   0.000   0.476     0.001     0.033
 2022 219    99  14830.94   1.561   0.000   0.000   0.034   0.000   0.463    -0.000     0.033
 2022 220   100  14830.51   1.598   0.000   0.000   0.034   0.000   0.422     0.000     0.033
 2022 221   101  14830.12   1.635   0.000   0.000   0.034   0.000   0.391    -0.001     0.033
 2022 222   102  14829.73   1.673   0.000   0.000   0.035   0.000   0.382     0.002     0.035
 2022 223   103  14829.37   1.711   0.000   0.000   0.035   0.000   0.361     0.001     0.036
 2022 224   104  14829.01   1.749   0.000   0.000   0.035   0.000   0.354    -0.002     0.035
 2022 225   105  14828.63   1.787   0.000   0.000   0.036   0.000   0.378     0.001     0.036
 2022 226   106  14828.24   1.826   0.000   0.000   0.036   0.000   0.390    -0.000     0.036
 2022 227   107  14827.85   1.865   0.000   0.000   0.036   0.000   0.387     0.001     0.037
 2022 228   108  14827.42   1.904   0.000   0.000   0.036   0.000   0.423    -0.001     0.036
 2022 229   109  14827.01   1.943   0.000   0.000   0.037   0.000   0.409     0.001     0.037
 2022 230   110  14826.63   1.982   0.000   0.000   0.037   0.000   0.381     0.001     0.038
 2022 231   111  14826.26   2.021   0.000   0.000   0.038   0.000   0.367     0.001     0.038
 2022 232   112  14825.92   2.060   0.000   0.000   0.038   0.000   0.340     0.001     0.039
 2022 233   113  14825.60   2.100   0.000   0.000   0.039   0.000   0.316    -0.000     0.039
 2022 234   114  14825.28   2.141   0.000   0.000   0.039   0.000   0.322     0.000     0.039
 2022 235   115  14824.96   2.181   0.000   0.000   0.039   0.000   0.322    -0.000     0.039
 2022 236   116  14824.64   2.223   0.000   0.000   0.040   0.000   0.318     0.000     0.039
 2022 237   117  14824.31   2.264   0.000   0.000   0.040   0.000   0.323     0.000     0.040
 2022 238   118  14823.97   2.306   0.000   0.000   0.040   0.000   0.343     0.000     0.040
 2022 239   119  14823.61   2.349   0.000   0.000   0.040   0.000   0.351     0.001     0.040
 2022 240   120  14823.25   2.392   0.000   0.000   0.041   0.000   0.359     0.001     0.041
 2022 241   121  14822.89   2.435   0.000   0.000   0.041   0.000   0.363    -0.001     0.040
 2022 242   122  14822.53   2.478   0.000   0.000   0.041   0.000   0.355     0.002     0.042
 2022 243   123  14822.19   2.522   0.000   0.000   0.042   0.000   0.338    -0.001     0.041
 2022 244   124  14821.85   2.566   0.000   0.000   0.042   0.000   0.342     0.000     0.042
 2022 245   125  14821.52   2.609   0.000   0.000   0.042   0.000   0.329     0.002     0.043
 2022 246   126  14821.19   2.654   0.000   0.000   0.043   0.000   0.323    -0.001     0.043
 2022 247   127  14820.88   2.698   0.000   0.000   0.043   0.000   0.315     0.001     0.044
 2022 248   128  14820.57   2.743   0.000   0.000   0.043   0.000   0.306    -0.001     0.043
 2022 249   129  14820.27   2.788   0.000   0.000   0.044   0.000   0.297     0.001     0.044
 2022 250   130  14819.97   2.834   0.000   0.000   0.044   0.000   0.302    -0.000     0.044
 2022 251   131  14819.67   2.880   0.000   0.000   0.044   0.000   0.295    -0.000     0.043
 2022 252   132  14819.36   2.926   0.000   0.000   0.044   0.000   0.313     0.002     0.045
 2022 253   133  14819.05   2.973   0.000   0.000   0.045   0.000   0.305    -0.000     0.045
 2022 254   134  14818.74   3.019   0.000   0.000   0.045   0.000   0.307    -0.002     0.043
 2022 255   135  14818.47   3.065   0.000   0.000   0.045   0.000   0.274     0.003     0.047
 2022 256   136  14818.21   3.112   0.000   0.000   0.046   0.000   0.257    -0.001     0.046
 2022 257   137  14817.98   3.158   0.000   0.000   0.046   0.000   0.232     0.000     0.046
 2022 258   138  14817.72   3.206   0.000   0.000   0.046   0.000   0.256    -0.000     0.046
 2022 259   139  14817.44   3.253   0.000   0.000   0.046   0.000   0.282     0.001     0.046
 2022 260   140  14817.11   3.299   0.000   0.000   0.047   0.000   0.331     0.001     0.048
 2022 261   141  14816.75   3.299   0.000   0.000   0.000   0.000   0.356    -0.047     0.000
 2022 262   142  14816.39   3.297   0.000   0.000   0.000   0.000   0.360    -0.001    -0.001
 2022 263   143  14816.04   3.294   0.000   0.000   0.000   0.000   0.354    -0.000    -0.001


!                                        INITIAL Year/Doy      FINAL Year/Doy
!                                                2022/121            2022/263
!SOIL N BALANCE                                 -----------kg N/ha-----------

!   Soil Humus N                                 14871.79            14816.04
!   Soil Litter N                                    0.00                3.29
!   N in Surface Residue                             0.00                0.00

!   Added to / Removed from Soil:
!   N in Harvest Residues from Previous Crop         0.00
!   N from Organic Applications                      0.00
!   N from senesced plant matter                     3.00
!   N immobilized                                    0.00
!   N mineralized                                                       55.46

!   Total N balance                              14874.79            14874.79
!   Balance                                                            -0.001
