*SOIL ORGANIC N BALANCE

*DSSAT Cropping System Model Ver. 4.8.2.000 -release  JUN 13, 2025 18:10:09

*RUN   1        : farm_23                   MZCER048 UNLI2309    1
 MODEL          : MZCER048 - Maize
 EXPERIMENT     : UNLI2309 MZ PIO1366
 DATA PATH      :
 TREATMENT  1   : farm_23                   MZCER048
  
!                 ----- STATE VARS ------   ---- ADDED TODAY ---- REMOVED     DAILY     CUMUL
@YEAR DOY   DAS      HUMN     FON    RESN   ARESN   ASENN AIMMOBN RMINERP      DBAL      CBAL
 2020 109     0  12681.62   0.000   0.000   0.000   0.000   0.000   0.000     0.000     0.000
 2020 110     1  12681.56   0.000  55.000  55.000   0.000   0.000   0.060     0.001     0.001
 2020 111     2  12681.50   0.000  55.000   0.000   0.000   0.000   0.057    -0.001    -0.000
 2020 112     3  12681.44   0.000  55.000   0.000   0.000   0.000   0.066    -0.000    -0.001
 2020 113     4  12681.36   0.000  55.000   0.000   0.000   0.000   0.077     0.001     0.000
 2020 114     5  12681.25   0.000  55.000   0.000   0.000   0.000   0.107    -0.000    -0.000
 2020 115     6  12681.12   0.000  55.000   0.000   0.000   0.000   0.130     0.001     0.001
 2020 116     7  12680.98   0.000  55.000   0.000   0.000   0.000   0.144    -0.001     0.000
 2020 117     8  12680.84   0.000  55.000   0.000   0.000   0.000   0.143     0.000     0.001
 2020 118     9  12680.68   0.000  55.000   0.000   0.000   0.000   0.160     0.000     0.001
 2020 119    10  12680.50   0.000  55.000   0.000   0.000   0.000   0.178    -0.001     0.000
 2020 120    11  12680.30   0.000  55.000   0.000   0.000   0.000   0.193     0.000     0.000
 2020 121    12  12680.09   0.000  55.000   0.000   0.000   0.000   0.210    -0.000     0.000
 2020 122    13  12679.86   0.000  55.000   0.000   0.000   0.000   0.236     0.000     0.000
 2020 123    14  12679.58   0.000  55.000   0.000   0.000   0.000   0.276     0.001     0.001
 2020 124    15  12679.33   0.000  55.000   0.000   0.000   0.000   0.257    -0.000     0.001
 2020 125    16  12679.08   0.000  55.000   0.000   0.000   0.000   0.251     0.000     0.001
 2020 126    17  12678.84   0.000  55.000   0.000   0.000   0.000   0.233    -0.000     0.001
 2020 127    18  12678.62   0.000  55.000   0.000   0.000   0.000   0.219    -0.000     0.001
 2020 128    19  12678.47   0.000  55.000   0.000   0.000   0.000   0.153     0.001     0.002
 2020 129    20  12678.32   0.000  55.000   0.000   0.000   0.000   0.148    -0.001     0.001
 2020 130    21  12678.20   0.000  55.000   0.000   0.000   0.000   0.120     0.001     0.002
 2020 131    22  12678.09   0.000  55.000   0.000   0.000   0.000   0.112    -0.001     0.001
 2020 132    23  12678.02   0.000  55.000   0.000   0.000   0.000   0.075     0.000     0.001
 2020 133    24  12677.97   0.000  55.000   0.000   0.000   0.000   0.043     0.000     0.001
 2020 134    25  12677.96   0.000  55.000   0.000   0.000   0.000   0.011    -0.000     0.001
 2020 135    26  12677.95   0.000  55.000   0.000   0.000   0.000   0.015     0.000     0.001
 2020 136    27  12677.91   0.000  55.000   0.000   0.000   0.000   0.039    -0.001     0.000
 2020 137    28  12677.82   0.000  55.000   0.000   0.000   0.000   0.086     0.000     0.001
 2020 138    29  12677.67   0.000  55.000   0.000   0.000   0.000   0.154     0.001     0.001
 2020 139    30  12677.48   0.000  55.000   0.000   0.000   0.000   0.190    -0.000     0.001
 2020 140    31  12677.28   0.000  55.000   0.000   0.000   0.000   0.200    -0.001     0.001
 2020 141    32  12677.07   0.000  55.000   0.000   0.000   0.000   0.207     0.000     0.001
 2020 142    33  12676.84   0.000  55.000   0.000   0.000   0.000   0.230    -0.001     0.000
 2020 143    34  12676.61   0.000  55.000   0.000   0.000   0.000   0.231     0.001     0.001
 2020 144    35  12676.35   0.000  55.000   0.000   0.000   0.000   0.263    -0.000     0.001
 2020 145    36  12676.05   0.000  55.000   0.000   0.000   0.000   0.291     0.000     0.001
 2020 146    37  12675.76   0.000  55.000   0.000   0.000   0.000   0.294    -0.001     0.001
 2020 147    38  12675.50   0.000  55.000   0.000   0.000   0.000   0.261     0.001     0.001
 2020 148    39  12675.24   0.000  55.000   0.000   0.000   0.000   0.255    -0.000     0.001
 2020 149    40  12674.99   0.000  55.000   0.000   0.000   0.000   0.255    -0.000     0.001
 2020 150    41  12674.73   0.000  55.000   0.000   0.000   0.000   0.259     0.000     0.001
 2020 151    42  12674.46   0.000  55.000   0.000   0.000   0.000   0.271    -0.001     0.000
 2020 152    43  12674.14   0.002  55.000   0.000   0.002   0.000   0.316     0.003     0.003
 2020 153    44  12673.78   0.004  55.000   0.000   0.002   0.000   0.361    -0.000     0.002
 2020 154    45  12673.36   0.007  55.000   0.000   0.003   0.000   0.418     0.001     0.003
 2020 155    46  12672.90   0.009  55.000   0.000   0.003   0.000   0.462     0.000     0.004
 2020 156    47  12672.42   0.013  55.000   0.000   0.003   0.000   0.484     0.001     0.005
 2020 157    48  12671.91   0.017  55.000   0.000   0.004   0.000   0.506     0.000     0.005
 2020 158    49  12671.39   0.023  55.000   0.000   0.006   0.000   0.517     0.001     0.006
 2020 159    50  12670.87   0.030  55.000   0.000   0.007   0.000   0.525     0.001     0.008
 2020 160    51  12670.32   0.037  55.000   0.000   0.007   0.000   0.551     0.001     0.008
 2020 161    52  12669.75   0.046  55.000   0.000   0.009   0.000   0.568     0.002     0.011
 2020 162    53  12669.23   0.055  55.000   0.000   0.009   0.000   0.520     0.000     0.011
 2020 163    54  12668.75   0.065  55.000   0.000   0.010   0.000   0.481     0.000     0.011
 2020 164    55  12668.32   0.076  55.000   0.000   0.011   0.000   0.426     0.001     0.012
 2020 165    56  12667.94   0.088  55.000   0.000   0.012   0.000   0.386     0.002     0.014
 2020 166    57  12667.56   0.101  55.000   0.000   0.013   0.000   0.374     0.001     0.015
 2020 167    58  12667.11   0.114  55.000   0.000   0.013   0.000   0.454    -0.001     0.014
 2020 168    59  12666.59   0.129  55.000   0.000   0.015   0.000   0.519     0.004     0.017
 2020 169    60  12666.02   0.147  55.000   0.000   0.018   0.000   0.567     0.002     0.020
 2020 170    61  12665.42   0.166  55.000   0.000   0.019   0.000   0.600     0.001     0.020
 2020 171    62  12664.84   0.187  55.000   0.000   0.020   0.000   0.586     0.001     0.021
 2020 172    63  12664.31   0.207  55.000   0.000   0.021   0.000   0.528     0.001     0.022
 2020 173    64  12663.82   0.229  55.000   0.000   0.021   0.000   0.484     0.001     0.023
 2020 174    65  12663.36   0.252  55.000   0.000   0.022   0.000   0.461     0.000     0.023
 2020 175    66  12662.95   0.276  55.000   0.000   0.022   0.000   0.415     0.001     0.024
 2020 176    67  12662.54   0.301  55.000   0.000   0.023   0.000   0.403     0.001     0.025
 2020 177    68  12662.11   0.328  55.000   0.000   0.023   0.000   0.428    -0.000     0.025
 2020 178    69  12661.65   0.355  55.000   0.000   0.023   0.000   0.456     0.000     0.025
 2020 179    70  12661.19   0.384  55.000   0.000   0.024   0.000   0.455     0.000     0.025
 2020 180    71  12660.71   0.415  55.000   0.000   0.024   0.000   0.476    -0.000     0.025
 2020 181    72  12660.19   0.447  55.000   0.000   0.024   0.000   0.509     0.001     0.026
 2020 182    73  12659.65   0.480  55.000   0.000   0.025   0.000   0.528     0.000     0.026
 2020 183    74  12659.16   0.512  55.000   0.000   0.025   0.000   0.486     0.000     0.027
 2020 184    75  12658.70   0.544  55.000   0.000   0.025   0.000   0.459     0.001     0.028
 2020 185    76  12658.24   0.576  55.000   0.000   0.026   0.000   0.452    -0.000     0.028
 2020 186    77  12657.79   0.609  55.000   0.000   0.026   0.000   0.439    -0.000     0.027
 2020 187    78  12657.37   0.641  55.000   0.000   0.026   0.000   0.412     0.001     0.028
 2020 188    79  12656.93   0.675  55.000   0.000   0.027   0.000   0.434    -0.000     0.028
 2020 189    80  12656.47   0.709  55.000   0.000   0.027   0.000   0.456     0.001     0.029
 2020 190    81  12656.00   0.744  55.000   0.000   0.027   0.000   0.463     0.001     0.030
 2020 191    82  12655.52   0.779  55.000   0.000   0.027   0.000   0.467    -0.000     0.029
 2020 192    83  12655.03   0.816  55.000   0.000   0.028   0.000   0.486     0.000     0.030
 2020 193    84  12654.52   0.853  55.000   0.000   0.028   0.000   0.494     0.001     0.031
 2020 194    85  12654.04   0.890  55.000   0.000   0.028   0.000   0.476    -0.001     0.030
 2020 195    86  12653.58   0.927  55.000   0.000   0.029   0.000   0.453     0.001     0.031
 2020 196    87  12653.09   0.966  55.000   0.000   0.029   0.000   0.477     0.000     0.031
 2020 197    88  12652.59   1.005  55.000   0.000   0.029   0.000   0.489    -0.000     0.031
 2020 198    89  12652.10   1.044  55.000   0.000   0.030   0.000   0.478     0.001     0.031
 2020 199    90  12651.60   1.084  55.000   0.000   0.030   0.000   0.491     0.001     0.032
 2020 200    91  12651.08   1.122  55.000   0.000   0.030   0.000   0.517    -0.000     0.032
 2020 201    92  12650.56   1.161  55.000   0.000   0.030   0.000   0.506    -0.000     0.032
 2020 202    93  12650.03   1.199  55.000   0.000   0.031   0.000   0.523     0.000     0.032
 2020 203    94  12649.50   1.236  55.000   0.000   0.031   0.000   0.528     0.001     0.033
 2020 204    95  12648.99   1.273  55.000   0.000   0.031   0.000   0.506    -0.000     0.033
 2020 205    96  12648.49   1.310  55.000   0.000   0.032   0.000   0.490     0.001     0.034
 2020 206    97  12647.99   1.347  55.000   0.000   0.032   0.000   0.501    -0.001     0.033
 2020 207    98  12647.46   1.384  55.000   0.000   0.032   0.000   0.523     0.001     0.034
 2020 208    99  12646.92   1.421  55.000   0.000   0.033   0.000   0.540     0.001     0.035
 2020 209   100  12646.35   1.458  55.000   0.000   0.033   0.000   0.557    -0.000     0.034
 2020 210   101  12645.80   1.495  55.000   0.000   0.033   0.000   0.554     0.000     0.035
 2020 211   102  12645.25   1.530  55.000   0.000   0.034   0.000   0.543     0.001     0.036
 2020 212   103  12644.71   1.567  55.000   0.000   0.034   0.000   0.533    -0.000     0.036
 2020 213   104  12644.21   1.603  55.000   0.000   0.034   0.000   0.507     0.001     0.036
 2020 214   105  12643.70   1.639  55.000   0.000   0.034   0.000   0.507    -0.000     0.036
 2020 215   106  12643.19   1.675  55.000   0.000   0.035   0.000   0.506    -0.001     0.036
 2020 216   107  12642.71   1.709  55.000   0.000   0.035   0.000   0.477     0.000     0.036
 2020 217   108  12642.27   1.743  55.000   0.000   0.035   0.000   0.444     0.001     0.037
 2020 218   109  12641.83   1.777  55.000   0.000   0.036   0.000   0.444    -0.000     0.037
 2020 219   110  12641.37   1.810  55.000   0.000   0.036   0.000   0.458     0.000     0.037
 2020 220   111  12640.91   1.842  55.000   0.000   0.036   0.000   0.465     0.001     0.038
 2020 221   112  12640.40   1.874  55.000   0.000   0.036   0.000   0.517     0.000     0.038
 2020 222   113  12639.85   1.905  55.000   0.000   0.037   0.000   0.555     0.001     0.039
 2020 223   114  12639.27   1.935  55.000   0.000   0.037   0.000   0.585    -0.001     0.038
 2020 224   115  12638.70   1.963  55.000   0.000   0.037   0.000   0.587     0.001     0.039
 2020 225   116  12638.11   1.991  55.000   0.000   0.038   0.000   0.590    -0.001     0.039
 2020 226   117  12637.54   2.019  55.000   0.000   0.038   0.000   0.580     0.000     0.039
 2020 227   118  12636.96   2.046  55.000   0.000   0.038   0.000   0.594     0.001     0.040
 2020 228   119  12636.39   2.072  55.000   0.000   0.039   0.000   0.580    -0.000     0.040
 2020 229   120  12635.84   2.099  55.000   0.000   0.039   0.000   0.568     0.001     0.041
 2020 230   121  12635.28   2.125  55.000   0.000   0.039   0.000   0.575     0.000     0.041
 2020 231   122  12634.73   2.151  55.000   0.000   0.040   0.000   0.556     0.000     0.042
 2020 232   123  12634.20   2.177  55.000   0.000   0.040   0.000   0.553    -0.001     0.041
 2020 233   124  12633.64   2.202  55.000   0.000   0.040   0.000   0.571    -0.000     0.041
 2020 234   125  12633.05   2.227  55.000   0.000   0.040   0.000   0.605     0.001     0.042
 2020 235   126  12632.46   2.250  55.000   0.000   0.041   0.000   0.610     0.001     0.042
 2020 236   127  12631.84   2.273  55.000   0.000   0.041   0.000   0.634     0.000     0.043
 2020 237   128  12631.23   2.295  55.000   0.000   0.041   0.000   0.636    -0.000     0.043
 2020 238   129  12630.59   2.317  55.000   0.000   0.042   0.000   0.656     0.001     0.044
 2020 239   130  12629.94   2.337  55.000   0.000   0.042   0.000   0.669     0.000     0.044
 2020 240   131  12629.29   2.357  55.000   0.000   0.043   0.000   0.681    -0.000     0.044
 2020 241   132  12628.62   2.376  55.000   0.000   0.043   0.000   0.688     0.001     0.044
 2020 242   133  12627.97   2.396  55.000   0.000   0.043   0.000   0.671     0.001     0.046
 2020 243   134  12627.38   2.417  55.000   0.000   0.044   0.000   0.617     0.000     0.046
 2020 244   135  12626.80   2.439  55.000   0.000   0.044   0.000   0.606     0.000     0.046
 2020 245   136  12626.27   2.463  55.000   0.000   0.044   0.000   0.551     0.001     0.047
 2020 246   137  12625.77   2.488  55.000   0.000   0.045   0.000   0.512     0.001     0.048
 2020 247   138  12625.30   2.514  55.000   0.000   0.045   0.000   0.490    -0.001     0.048
 2020 248   139  12624.82   2.539  55.000   0.000   0.045   0.000   0.504     0.000     0.048
 2020 249   140  12624.35   2.566  55.000   0.000   0.045   0.000   0.489     0.000     0.048
 2020 250   141  12623.85   2.590  55.000   0.000   0.046   0.000   0.523     0.000     0.048
 2020 251   142  12623.32   2.613  55.000   0.000   0.046   0.000   0.550    -0.000     0.048
 2020 252   143  12622.81   2.637  55.000   0.000   0.046   0.000   0.532     0.001     0.049
 2020 253   144  12622.37   2.664  55.000   0.000   0.046   0.000   0.456     0.000     0.049
 2020 254   145  12622.03   2.695  55.000   0.000   0.047   0.000   0.361     0.000     0.049
 2020 255   146  12621.76   2.730  55.000   0.000   0.047   0.000   0.277     0.001     0.050
 2020 256   147  12621.55   2.768  55.000   0.000   0.047   0.000   0.222    -0.000     0.050
 2020 257   148  12621.34   2.806  55.000   0.000   0.047   0.000   0.220     0.000     0.050
 2020 258   149  12621.06   2.840  55.000   0.000   0.047   0.000   0.296    -0.001     0.050
 2020 259   150  12620.71   2.870  55.000   0.000   0.047   0.000   0.368     0.000     0.050
 2020 260   151  12620.29   2.897  55.000   0.000   0.047   0.000   0.438    -0.000     0.050
 2020 261   152  12619.87   2.923  55.000   0.000   0.048   0.000   0.443     0.001     0.050
 2020 262   153  12619.45   2.949  55.000   0.000   0.048   0.000   0.442    -0.000     0.050
 2020 263   154  12619.03   2.974  55.000   0.000   0.048   0.000   0.442    -0.000     0.050
 2020 264   155  12618.59   2.999  55.000   0.000   0.048   0.000   0.459    -0.000     0.050
 2020 265   156  12618.15   2.975  55.000   0.000   0.000   0.000   0.464    -0.049     0.001
 2020 266   157  12617.67   2.949  55.000   0.000   0.000   0.000   0.502     0.000     0.001
 2020 267   158  12617.17   2.921  55.000   0.000   0.000   0.000   0.537     0.002     0.003
 2020 268   159  12616.65   2.891  55.000   0.000   0.000   0.000   0.550    -0.001     0.003


!                                        INITIAL Year/Doy      FINAL Year/Doy
!                                                2020/110            2020/268
!SOIL N BALANCE                                 -----------kg N/ha-----------

!   Soil Humus N                                 12681.62            12616.65
!   Soil Litter N                                    0.00                2.89
!   N in Surface Residue                             0.00               55.00

!   Added to / Removed from Soil:
!   N in Harvest Residues from Previous Crop         0.00
!   N from Organic Applications                     55.00
!   N from senesced plant matter                     3.49
!   N immobilized                                    0.00
!   N mineralized                                                       65.58

!   Total N balance                              12740.11            12740.11
!   Balance                                                             0.002
